<NUMBER OF ZONES> 8658
<NUMBER OF NODES> 272
<FIRST THRU NODE> 1
<NUMBER OF LINKS> 502
<END OF METADATA>
~  Init node  Term node  Capacity  Length  Free Flow Time  B  Power  Speed limit  Toll  Type  ;
	1342	999991	12000	0.5	0.033333	999	0	0	0	0	;
	999991	1342	12000	0.5	0.033333	999	0	0	0	0	;
	1328	1342	12000	0.5	0.016667	999	0	0	0	0	;
	1342	1328	12000	0.5	0.016667	999	0	0	0	0	;
	1275	1328	12000	0.5	0.016667	999	0	0	0	0	;
	1328	1275	12000	0.5	0.016667	999	0	0	0	0	;
	1248	1275	12000	0.5	0.016667	999	0	0	0	0	;
	1275	1248	12000	0.5	0.016667	999	0	0	0	0	;
	1189	1248	12000	0.5	0.033333	999	0	0	0	0	;
	1248	1189	12000	0.5	0.033333	999	0	0	0	0	;
	1073	1189	12000	0.5	0.016667	999	0	0	0	0	;
	1189	1073	12000	0.5	0.016667	999	0	0	0	0	;
	985	1073	12000	0.5	0.033333	999	0	0	0	0	;
	1073	985	12000	0.5	0.033333	999	0	0	0	0	;
	922	985	12000	0.5	0.033333	999	0	0	0	0	;
	985	922	12000	0.5	0.033333	999	0	0	0	0	;
	9999910	922	12000	0.5	0.033333	999	0	0	0	0	;
	922	9999910	12000	0.5	0.033333	999	0	0	0	0	;
	842	9999910	12000	0.5	0.016667	999	0	0	0	0	;
	9999910	842	12000	0.5	0.016667	999	0	0	0	0	;
	9999912	842	12000	0.5	0.016667	999	0	0	0	0	;
	842	9999912	12000	0.5	0.016667	999	0	0	0	0	;
	747	9999912	12000	0.5	0.033333	999	0	0	0	0	;
	9999912	747	12000	0.5	0.033333	999	0	0	0	0	;
	734	747	12000	0.5	0.016667	999	0	0	0	0	;
	747	734	12000	0.5	0.016667	999	0	0	0	0	;
	662	734	12000	0.5	0.016667	999	0	0	0	0	;
	734	662	12000	0.5	0.016667	999	0	0	0	0	;
	582	662	12000	0.5	0.033333	999	0	0	0	0	;
	662	582	12000	0.5	0.033333	999	0	0	0	0	;
	532	582	12000	0.5	0.016667	999	0	0	0	0	;
	582	532	12000	0.5	0.016667	999	0	0	0	0	;
	490	532	12000	0.5	0.016667	999	0	0	0	0	;
	532	490	12000	0.5	0.016667	999	0	0	0	0	;
	482	490	12000	0.5	0.016667	999	0	0	0	0	;
	490	482	12000	0.5	0.016667	999	0	0	0	0	;
	497	482	12000	0.5	0.033333	999	0	0	0	0	;
	482	497	12000	0.5	0.033333	999	0	0	0	0	;
	463	497	12000	0.5	0.033333	999	0	0	0	0	;
	497	463	12000	0.5	0.033333	999	0	0	0	0	;
	406	463	12000	0.5	0.033333	999	0	0	0	0	;
	463	406	12000	0.5	0.033333	999	0	0	0	0	;
	334	406	12000	0.5	0.033333	999	0	0	0	0	;
	406	334	12000	0.5	0.033333	999	0	0	0	0	;
	266	334	12000	0.5	0.033333	999	0	0	0	0	;
	334	266	12000	0.5	0.033333	999	0	0	0	0	;
	222	266	12000	0.5	0.033333	999	0	0	0	0	;
	266	222	12000	0.5	0.033333	999	0	0	0	0	;
	9999926	222	12000	0.5	0.033333	999	0	0	0	0	;
	222	9999926	12000	0.5	0.033333	999	0	0	0	0	;
	154	9999926	12000	0.5	0.016667	999	0	0	0	0	;
	9999926	154	12000	0.5	0.016667	999	0	0	0	0	;
	9999928	154	12000	0.5	0.016667	999	0	0	0	0	;
	154	9999928	12000	0.5	0.016667	999	0	0	0	0	;
	83	9999928	12000	0.5	0.033333	999	0	0	0	0	;
	9999928	83	12000	0.5	0.033333	999	0	0	0	0	;
	75	83	12000	0.5	0.033333	999	0	0	0	0	;
	83	75	12000	0.5	0.033333	999	0	0	0	0	;
	70	75	12000	0.5	0.016667	999	0	0	0	0	;
	75	70	12000	0.5	0.016667	999	0	0	0	0	;
	36	70	12000	0.5	0.016667	999	0	0	0	0	;
	70	36	12000	0.5	0.016667	999	0	0	0	0	;
	9999933	36	12000	0.5	0.033333	999	0	0	0	0	;
	36	9999933	12000	0.5	0.033333	999	0	0	0	0	;
	6	9999933	12000	0.5	0.033333	999	0	0	0	0	;
	9999933	6	12000	0.5	0.033333	999	0	0	0	0	;
	17	6	12000	0.5	0.033333	999	0	0	0	0	;
	6	17	12000	0.5	0.033333	999	0	0	0	0	;
	978	1055	8571.5	0.5	0.033333	999	0	0	0	0	;
	1055	978	8571.5	0.5	0.033333	999	0	0	0	0	;
	9999938	978	8571.5	0.5	0.033333	999	0	0	0	0	;
	978	9999938	8571.5	0.5	0.033333	999	0	0	0	0	;
	905	9999938	8571.5	0.5	0.033333	999	0	0	0	0	;
	9999938	905	8571.5	0.5	0.033333	999	0	0	0	0	;
	662	905	8571.5	0.5	0.033333	999	0	0	0	0	;
	905	662	8571.5	0.5	0.033333	999	0	0	0	0	;
	490	662	8571.5	0.5	0.05	999	0	0	0	0	;
	662	490	8571.5	0.5	0.05	999	0	0	0	0	;
	406	490	8571.5	0.5	0.066667	999	0	0	0	0	;
	490	406	8571.5	0.5	0.066667	999	0	0	0	0	;
	334	406	8571.5	0.5	0.016667	999	0	0	0	0	;
	406	334	8571.5	0.5	0.016667	999	0	0	0	0	;
	154	334	8571.5	0.5	0.05	999	0	0	0	0	;
	334	154	8571.5	0.5	0.05	999	0	0	0	0	;
	36	154	8571.5	0.5	0.11667	999	0	0	0	0	;
	154	36	8571.5	0.5	0.11667	999	0	0	0	0	;
	39	36	8571.5	0.5	0.033333	999	0	0	0	0	;
	36	39	8571.5	0.5	0.033333	999	0	0	0	0	;
	9999947	39	8571.5	0.5	0.033333	999	0	0	0	0	;
	39	9999947	8571.5	0.5	0.033333	999	0	0	0	0	;
	9999948	9999947	8571.5	0.5	0.016667	999	0	0	0	0	;
	9999947	9999948	8571.5	0.5	0.016667	999	0	0	0	0	;
	1138	1121	8571.5	0.5	0.033333	999	0	0	0	0	;
	1121	1138	8571.5	0.5	0.033333	999	0	0	0	0	;
	1055	1138	8571.5	0.5	0.033333	999	0	0	0	0	;
	1138	1055	8571.5	0.5	0.033333	999	0	0	0	0	;
	978	1055	8571.5	0.5	0.033333	999	0	0	0	0	;
	1055	978	8571.5	0.5	0.033333	999	0	0	0	0	;
	9999953	978	8571.5	0.5	0.033333	999	0	0	0	0	;
	978	9999953	8571.5	0.5	0.033333	999	0	0	0	0	;
	905	9999953	8571.5	0.5	0.033333	999	0	0	0	0	;
	9999953	905	8571.5	0.5	0.033333	999	0	0	0	0	;
	662	905	8571.5	0.5	0.033333	999	0	0	0	0	;
	905	662	8571.5	0.5	0.033333	999	0	0	0	0	;
	490	662	8571.5	0.5	0.05	999	0	0	0	0	;
	662	490	8571.5	0.5	0.05	999	0	0	0	0	;
	406	490	8571.5	0.5	0.066667	999	0	0	0	0	;
	490	406	8571.5	0.5	0.066667	999	0	0	0	0	;
	334	406	8571.5	0.5	0.033333	999	0	0	0	0	;
	406	334	8571.5	0.5	0.033333	999	0	0	0	0	;
	154	334	8571.5	0.5	0.033333	999	0	0	0	0	;
	334	154	8571.5	0.5	0.033333	999	0	0	0	0	;
	36	154	8571.5	0.5	0.083333	999	0	0	0	0	;
	154	36	8571.5	0.5	0.083333	999	0	0	0	0	;
	39	36	8571.5	0.5	0.033333	999	0	0	0	0	;
	36	39	8571.5	0.5	0.033333	999	0	0	0	0	;
	9999962	39	8571.5	0.5	0.016667	999	0	0	0	0	;
	39	9999962	8571.5	0.5	0.016667	999	0	0	0	0	;
	9999963	9999962	8571.5	0.5	0.033333	999	0	0	0	0	;
	9999962	9999963	8571.5	0.5	0.033333	999	0	0	0	0	;
	866	1119	8571.5	0.5	0.083333	999	0	0	0	0	;
	1119	866	8571.5	0.5	0.083333	999	0	0	0	0	;
	726	866	8571.5	0.5	0.083333	999	0	0	0	0	;
	866	726	8571.5	0.5	0.083333	999	0	0	0	0	;
	565	726	8571.5	0.5	0.083333	999	0	0	0	0	;
	726	565	8571.5	0.5	0.083333	999	0	0	0	0	;
	348	565	8571.5	0.5	0.066667	999	0	0	0	0	;
	565	348	8571.5	0.5	0.066667	999	0	0	0	0	;
	97	348	8571.5	0.5	0.066667	999	0	0	0	0	;
	348	97	8571.5	0.5	0.066667	999	0	0	0	0	;
	43	97	8571.5	0.5	0.083333	999	0	0	0	0	;
	97	43	8571.5	0.5	0.083333	999	0	0	0	0	;
	9999971	43	8571.5	0.5	0.083333	999	0	0	0	0	;
	43	9999971	8571.5	0.5	0.083333	999	0	0	0	0	;
	11	9999971	8571.5	0.5	0.066667	999	0	0	0	0	;
	9999971	11	8571.5	0.5	0.066667	999	0	0	0	0	;
	866	1119	8571.5	0.5	0.083333	999	0	0	0	0	;
	1119	866	8571.5	0.5	0.083333	999	0	0	0	0	;
	726	866	8571.5	0.5	0.083333	999	0	0	0	0	;
	866	726	8571.5	0.5	0.083333	999	0	0	0	0	;
	565	726	8571.5	0.5	0.083333	999	0	0	0	0	;
	726	565	8571.5	0.5	0.083333	999	0	0	0	0	;
	348	565	8571.5	0.5	0.066667	999	0	0	0	0	;
	565	348	8571.5	0.5	0.066667	999	0	0	0	0	;
	97	348	8571.5	0.5	0.066667	999	0	0	0	0	;
	348	97	8571.5	0.5	0.066667	999	0	0	0	0	;
	43	97	8571.5	0.5	0.083333	999	0	0	0	0	;
	97	43	8571.5	0.5	0.083333	999	0	0	0	0	;
	9999980	43	8571.5	0.5	0.083333	999	0	0	0	0	;
	43	9999980	8571.5	0.5	0.083333	999	0	0	0	0	;
	11	9999980	8571.5	0.5	0.066667	999	0	0	0	0	;
	9999980	11	8571.5	0.5	0.066667	999	0	0	0	0	;
	9999983	1119	20000	0.5	0.016667	999	0	0	0	0	;
	1119	9999983	20000	0.5	0.016667	999	0	0	0	0	;
	9999984	9999983	20000	0.5	0.016667	999	0	0	0	0	;
	9999983	9999984	20000	0.5	0.016667	999	0	0	0	0	;
	9999985	9999984	20000	0.5	0.033333	999	0	0	0	0	;
	9999984	9999985	20000	0.5	0.033333	999	0	0	0	0	;
	915	9999985	20000	0.5	0.033333	999	0	0	0	0	;
	9999985	915	20000	0.5	0.033333	999	0	0	0	0	;
	866	915	20000	0.5	0.016667	999	0	0	0	0	;
	915	866	20000	0.5	0.016667	999	0	0	0	0	;
	830	866	20000	0.5	0.033333	999	0	0	0	0	;
	866	830	20000	0.5	0.033333	999	0	0	0	0	;
	762	830	20000	0.5	0.033333	999	0	0	0	0	;
	830	762	20000	0.5	0.033333	999	0	0	0	0	;
	726	762	20000	0.5	0.033333	999	0	0	0	0	;
	762	726	20000	0.5	0.033333	999	0	0	0	0	;
	663	726	20000	0.5	0.016667	999	0	0	0	0	;
	726	663	20000	0.5	0.016667	999	0	0	0	0	;
	565	663	20000	0.5	0.033333	999	0	0	0	0	;
	663	565	20000	0.5	0.033333	999	0	0	0	0	;
	485	565	20000	0.5	0.033333	999	0	0	0	0	;
	565	485	20000	0.5	0.033333	999	0	0	0	0	;
	460	485	20000	0.5	0.016667	999	0	0	0	0	;
	485	460	20000	0.5	0.016667	999	0	0	0	0	;
	415	460	20000	0.5	0.016667	999	0	0	0	0	;
	460	415	20000	0.5	0.016667	999	0	0	0	0	;
	348	415	20000	0.5	0.033333	999	0	0	0	0	;
	415	348	20000	0.5	0.033333	999	0	0	0	0	;
	332	348	20000	0.5	0.033333	999	0	0	0	0	;
	348	332	20000	0.5	0.033333	999	0	0	0	0	;
	234	332	20000	0.5	0.033333	999	0	0	0	0	;
	332	234	20000	0.5	0.033333	999	0	0	0	0	;
	197	234	20000	0.5	0.05	999	0	0	0	0	;
	234	197	20000	0.5	0.05	999	0	0	0	0	;
	138	197	20000	0.5	0.05	999	0	0	0	0	;
	197	138	20000	0.5	0.05	999	0	0	0	0	;
	97	138	20000	0.5	0.066667	999	0	0	0	0	;
	138	97	20000	0.5	0.066667	999	0	0	0	0	;
	516	588	20000	0.5	0.016667	999	0	0	0	0	;
	588	516	20000	0.5	0.016667	999	0	0	0	0	;
	406	516	20000	0.5	0.033333	999	0	0	0	0	;
	516	406	20000	0.5	0.033333	999	0	0	0	0	;
	117	406	20000	0.5	0.05	999	0	0	0	0	;
	406	117	20000	0.5	0.05	999	0	0	0	0	;
	1267	1321	10000	0.5	0.016667	999	0	0	0	0	;
	1321	1267	10000	0.5	0.016667	999	0	0	0	0	;
	99999108	1267	10000	0.5	0.033333	999	0	0	0	0	;
	1267	99999108	10000	0.5	0.033333	999	0	0	0	0	;
	1111	99999108	10000	0.5	0.033333	999	0	0	0	0	;
	99999108	1111	10000	0.5	0.033333	999	0	0	0	0	;
	1084	1111	10000	0.5	0.016667	999	0	0	0	0	;
	1111	1084	10000	0.5	0.016667	999	0	0	0	0	;
	1086	1084	10000	0.5	0.016667	999	0	0	0	0	;
	1084	1086	10000	0.5	0.016667	999	0	0	0	0	;
	1006	1086	10000	0.5	0.083333	999	0	0	0	0	;
	1086	1006	10000	0.5	0.083333	999	0	0	0	0	;
	902	1006	10000	0.5	0.05	999	0	0	0	0	;
	1006	902	10000	0.5	0.05	999	0	0	0	0	;
	497	902	10000	0.5	0.2	999	0	0	0	0	;
	902	497	10000	0.5	0.2	999	0	0	0	0	;
	350	497	10000	0.5	0.05	999	0	0	0	0	;
	497	350	10000	0.5	0.05	999	0	0	0	0	;
	272	350	10000	0.5	0.033333	999	0	0	0	0	;
	350	272	10000	0.5	0.033333	999	0	0	0	0	;
	122	272	10000	0.5	0.033333	999	0	0	0	0	;
	272	122	10000	0.5	0.033333	999	0	0	0	0	;
	156	122	10000	0.5	0.033333	999	0	0	0	0	;
	122	156	10000	0.5	0.033333	999	0	0	0	0	;
	85	156	10000	0.5	0.066667	999	0	0	0	0	;
	156	85	10000	0.5	0.066667	999	0	0	0	0	;
	39	85	10000	0.5	0.033333	999	0	0	0	0	;
	85	39	10000	0.5	0.033333	999	0	0	0	0	;
	56	39	10000	0.5	0.033333	999	0	0	0	0	;
	39	56	10000	0.5	0.033333	999	0	0	0	0	;
	1006	1102	6000	0.5	0.033333	999	0	0	0	0	;
	1102	1006	6000	0.5	0.033333	999	0	0	0	0	;
	951	1006	6000	0.5	0.033333	999	0	0	0	0	;
	1006	951	6000	0.5	0.033333	999	0	0	0	0	;
	902	951	6000	0.5	0.033333	999	0	0	0	0	;
	951	902	6000	0.5	0.033333	999	0	0	0	0	;
	868	902	6000	0.5	0.033333	999	0	0	0	0	;
	902	868	6000	0.5	0.033333	999	0	0	0	0	;
	841	868	6000	0.5	0.016667	999	0	0	0	0	;
	868	841	6000	0.5	0.016667	999	0	0	0	0	;
	99999128	841	6000	0.5	0.016667	999	0	0	0	0	;
	841	99999128	6000	0.5	0.016667	999	0	0	0	0	;
	766	99999128	6000	0.5	0.016667	999	0	0	0	0	;
	99999128	766	6000	0.5	0.016667	999	0	0	0	0	;
	713	766	6000	0.5	0.016667	999	0	0	0	0	;
	766	713	6000	0.5	0.016667	999	0	0	0	0	;
	675	713	6000	0.5	0.016667	999	0	0	0	0	;
	713	675	6000	0.5	0.016667	999	0	0	0	0	;
	590	675	6000	0.5	0.033333	999	0	0	0	0	;
	675	590	6000	0.5	0.033333	999	0	0	0	0	;
	497	590	6000	0.5	0.033333	999	0	0	0	0	;
	590	497	6000	0.5	0.033333	999	0	0	0	0	;
	493	497	6000	0.5	0.033333	999	0	0	0	0	;
	497	493	6000	0.5	0.033333	999	0	0	0	0	;
	517	493	6000	0.5	0.016667	999	0	0	0	0	;
	493	517	6000	0.5	0.016667	999	0	0	0	0	;
	453	517	6000	0.5	0.033333	999	0	0	0	0	;
	517	453	6000	0.5	0.033333	999	0	0	0	0	;
	394	453	6000	0.5	0.016667	999	0	0	0	0	;
	453	394	6000	0.5	0.016667	999	0	0	0	0	;
	156	394	6000	0.5	0.05	999	0	0	0	0	;
	394	156	6000	0.5	0.05	999	0	0	0	0	;
	217	156	6000	0.5	0.033333	999	0	0	0	0	;
	156	217	6000	0.5	0.033333	999	0	0	0	0	;
	265	217	6000	0.5	0.033333	999	0	0	0	0	;
	217	265	6000	0.5	0.033333	999	0	0	0	0	;
	1071	1086	6666.5	0.5	0.016667	999	0	0	0	0	;
	1086	1071	6666.5	0.5	0.016667	999	0	0	0	0	;
	1045	1071	6666.5	0.5	0.016667	999	0	0	0	0	;
	1071	1045	6666.5	0.5	0.016667	999	0	0	0	0	;
	1006	1045	6666.5	0.5	0.016667	999	0	0	0	0	;
	1045	1006	6666.5	0.5	0.016667	999	0	0	0	0	;
	951	1006	6666.5	0.5	0.033333	999	0	0	0	0	;
	1006	951	6666.5	0.5	0.033333	999	0	0	0	0	;
	902	951	6666.5	0.5	0.033333	999	0	0	0	0	;
	951	902	6666.5	0.5	0.033333	999	0	0	0	0	;
	868	902	6666.5	0.5	0.016667	999	0	0	0	0	;
	902	868	6666.5	0.5	0.016667	999	0	0	0	0	;
	841	868	6666.5	0.5	0.033333	999	0	0	0	0	;
	868	841	6666.5	0.5	0.033333	999	0	0	0	0	;
	99999149	841	6666.5	0.5	0.033333	999	0	0	0	0	;
	841	99999149	6666.5	0.5	0.033333	999	0	0	0	0	;
	766	99999149	6666.5	0.5	0.033333	999	0	0	0	0	;
	99999149	766	6666.5	0.5	0.033333	999	0	0	0	0	;
	713	766	6666.5	0.5	0.016667	999	0	0	0	0	;
	766	713	6666.5	0.5	0.016667	999	0	0	0	0	;
	675	713	6666.5	0.5	0.033333	999	0	0	0	0	;
	713	675	6666.5	0.5	0.033333	999	0	0	0	0	;
	590	675	6666.5	0.5	0.033333	999	0	0	0	0	;
	675	590	6666.5	0.5	0.033333	999	0	0	0	0	;
	497	590	6666.5	0.5	0.033333	999	0	0	0	0	;
	590	497	6666.5	0.5	0.033333	999	0	0	0	0	;
	419	497	6666.5	0.5	0.016667	999	0	0	0	0	;
	497	419	6666.5	0.5	0.016667	999	0	0	0	0	;
	350	419	6666.5	0.5	0.033333	999	0	0	0	0	;
	419	350	6666.5	0.5	0.033333	999	0	0	0	0	;
	272	350	6666.5	0.5	0.033333	999	0	0	0	0	;
	350	272	6666.5	0.5	0.033333	999	0	0	0	0	;
	174	272	6666.5	0.5	0.033333	999	0	0	0	0	;
	272	174	6666.5	0.5	0.033333	999	0	0	0	0	;
	122	174	6666.5	0.5	0.033333	999	0	0	0	0	;
	174	122	6666.5	0.5	0.033333	999	0	0	0	0	;
	156	122	6666.5	0.5	0.016667	999	0	0	0	0	;
	122	156	6666.5	0.5	0.016667	999	0	0	0	0	;
	99999161	156	6666.5	0.5	0.033333	999	0	0	0	0	;
	156	99999161	6666.5	0.5	0.033333	999	0	0	0	0	;
	85	99999161	6666.5	0.5	0.016667	999	0	0	0	0	;
	99999161	85	6666.5	0.5	0.016667	999	0	0	0	0	;
	39	85	6666.5	0.5	0.016667	999	0	0	0	0	;
	85	39	6666.5	0.5	0.016667	999	0	0	0	0	;
	56	39	6666.5	0.5	0.016667	999	0	0	0	0	;
	39	56	6666.5	0.5	0.016667	999	0	0	0	0	;
	1006	1102	8571.5	0.5	0.033333	999	0	0	0	0	;
	1102	1006	8571.5	0.5	0.033333	999	0	0	0	0	;
	902	1006	8571.5	0.5	0.05	999	0	0	0	0	;
	1006	902	8571.5	0.5	0.05	999	0	0	0	0	;
	497	902	8571.5	0.5	0.13333	999	0	0	0	0	;
	902	497	8571.5	0.5	0.13333	999	0	0	0	0	;
	493	497	8571.5	0.5	0.016667	999	0	0	0	0	;
	497	493	8571.5	0.5	0.016667	999	0	0	0	0	;
	517	493	8571.5	0.5	0.033333	999	0	0	0	0	;
	493	517	8571.5	0.5	0.033333	999	0	0	0	0	;
	453	517	8571.5	0.5	0.016667	999	0	0	0	0	;
	517	453	8571.5	0.5	0.016667	999	0	0	0	0	;
	394	453	8571.5	0.5	0.033333	999	0	0	0	0	;
	453	394	8571.5	0.5	0.033333	999	0	0	0	0	;
	156	394	8571.5	0.5	0.05	999	0	0	0	0	;
	394	156	8571.5	0.5	0.05	999	0	0	0	0	;
	217	156	8571.5	0.5	0.033333	999	0	0	0	0	;
	156	217	8571.5	0.5	0.033333	999	0	0	0	0	;
	265	217	8571.5	0.5	0.033333	999	0	0	0	0	;
	217	265	8571.5	0.5	0.033333	999	0	0	0	0	;
	593	712	15000	0.5	0.05	999	0	0	0	0	;
	712	593	15000	0.5	0.05	999	0	0	0	0	;
	493	593	15000	0.5	0.05	999	0	0	0	0	;
	593	493	15000	0.5	0.05	999	0	0	0	0	;
	419	493	15000	0.5	0.033333	999	0	0	0	0	;
	493	419	15000	0.5	0.033333	999	0	0	0	0	;
	350	419	15000	0.5	0.033333	999	0	0	0	0	;
	419	350	15000	0.5	0.033333	999	0	0	0	0	;
	272	350	15000	0.5	0.033333	999	0	0	0	0	;
	350	272	15000	0.5	0.033333	999	0	0	0	0	;
	174	272	15000	0.5	0.033333	999	0	0	0	0	;
	272	174	15000	0.5	0.033333	999	0	0	0	0	;
	122	174	15000	0.5	0.033333	999	0	0	0	0	;
	174	122	15000	0.5	0.033333	999	0	0	0	0	;
	156	122	15000	0.5	0.033333	999	0	0	0	0	;
	122	156	15000	0.5	0.033333	999	0	0	0	0	;
	99999185	156	15000	0.5	0.05	999	0	0	0	0	;
	156	99999185	15000	0.5	0.05	999	0	0	0	0	;
	85	99999185	15000	0.5	0.05	999	0	0	0	0	;
	99999185	85	15000	0.5	0.05	999	0	0	0	0	;
	34	85	15000	0.5	0.05	999	0	0	0	0	;
	85	34	15000	0.5	0.05	999	0	0	0	0	;
	759	99999188	12000	0.5	0.05	999	0	0	0	0	;
	99999188	759	12000	0.5	0.05	999	0	0	0	0	;
	571	759	12000	0.5	0.033333	999	0	0	0	0	;
	759	571	12000	0.5	0.033333	999	0	0	0	0	;
	517	571	12000	0.5	0.033333	999	0	0	0	0	;
	571	517	12000	0.5	0.033333	999	0	0	0	0	;
	453	517	12000	0.5	0.016667	999	0	0	0	0	;
	517	453	12000	0.5	0.016667	999	0	0	0	0	;
	394	453	12000	0.5	0.033333	999	0	0	0	0	;
	453	394	12000	0.5	0.033333	999	0	0	0	0	;
	282	394	12000	0.5	0.033333	999	0	0	0	0	;
	394	282	12000	0.5	0.033333	999	0	0	0	0	;
	207	282	12000	0.5	0.016667	999	0	0	0	0	;
	282	207	12000	0.5	0.016667	999	0	0	0	0	;
	156	207	12000	0.5	0.016667	999	0	0	0	0	;
	207	156	12000	0.5	0.016667	999	0	0	0	0	;
	217	156	12000	0.5	0.05	999	0	0	0	0	;
	156	217	12000	0.5	0.05	999	0	0	0	0	;
	325	217	12000	0.5	0.033333	999	0	0	0	0	;
	217	325	12000	0.5	0.033333	999	0	0	0	0	;
	386	325	12000	0.5	0.016667	999	0	0	0	0	;
	325	386	12000	0.5	0.016667	999	0	0	0	0	;
	343	386	12000	0.5	0.016667	999	0	0	0	0	;
	386	343	12000	0.5	0.016667	999	0	0	0	0	;
	262	386	12000	0.5	0.016667	999	0	0	0	0	;
	386	262	12000	0.5	0.016667	999	0	0	0	0	;
	148	262	12000	0.5	0.016667	999	0	0	0	0	;
	262	148	12000	0.5	0.016667	999	0	0	0	0	;
	101	148	12000	0.5	0.033333	999	0	0	0	0	;
	148	101	12000	0.5	0.033333	999	0	0	0	0	;
	56	101	12000	0.5	0.016667	999	0	0	0	0	;
	101	56	12000	0.5	0.016667	999	0	0	0	0	;
	99999206	56	12000	0.5	0.033333	999	0	0	0	0	;
	56	99999206	12000	0.5	0.033333	999	0	0	0	0	;
	402	478	12000	0.5	0.016667	999	0	0	0	0	;
	478	402	12000	0.5	0.016667	999	0	0	0	0	;
	331	402	12000	0.5	0.016667	999	0	0	0	0	;
	402	331	12000	0.5	0.016667	999	0	0	0	0	;
	207	331	12000	0.5	0.033333	999	0	0	0	0	;
	331	207	12000	0.5	0.033333	999	0	0	0	0	;
	107	207	12000	0.5	0.033333	999	0	0	0	0	;
	207	107	12000	0.5	0.033333	999	0	0	0	0	;
	593	712	12000	0.5	0.033333	999	0	0	0	0	;
	712	593	12000	0.5	0.033333	999	0	0	0	0	;
	517	593	12000	0.5	0.033333	999	0	0	0	0	;
	593	517	12000	0.5	0.033333	999	0	0	0	0	;
	453	517	12000	0.5	0.033333	999	0	0	0	0	;
	517	453	12000	0.5	0.033333	999	0	0	0	0	;
	394	453	12000	0.5	0.016667	999	0	0	0	0	;
	453	394	12000	0.5	0.016667	999	0	0	0	0	;
	282	394	12000	0.5	0.033333	999	0	0	0	0	;
	394	282	12000	0.5	0.033333	999	0	0	0	0	;
	207	282	12000	0.5	0.016667	999	0	0	0	0	;
	282	207	12000	0.5	0.016667	999	0	0	0	0	;
	156	207	12000	0.5	0.016667	999	0	0	0	0	;
	207	156	12000	0.5	0.016667	999	0	0	0	0	;
	217	156	12000	0.5	0.066667	999	0	0	0	0	;
	156	217	12000	0.5	0.066667	999	0	0	0	0	;
	386	217	12000	0.5	0.066667	999	0	0	0	0	;
	217	386	12000	0.5	0.066667	999	0	0	0	0	;
	644	735	10000	0.5	0.033333	999	0	0	0	0	;
	735	644	10000	0.5	0.033333	999	0	0	0	0	;
	530	644	10000	0.5	0.05	999	0	0	0	0	;
	644	530	10000	0.5	0.05	999	0	0	0	0	;
	458	530	10000	0.5	0.033333	999	0	0	0	0	;
	530	458	10000	0.5	0.033333	999	0	0	0	0	;
	413	458	10000	0.5	0.033333	999	0	0	0	0	;
	458	413	10000	0.5	0.033333	999	0	0	0	0	;
	394	413	10000	0.5	0.033333	999	0	0	0	0	;
	413	394	10000	0.5	0.033333	999	0	0	0	0	;
	346	394	10000	0.5	0.033333	999	0	0	0	0	;
	394	346	10000	0.5	0.033333	999	0	0	0	0	;
	138	346	10000	0.5	0.05	999	0	0	0	0	;
	346	138	10000	0.5	0.05	999	0	0	0	0	;
	910	959	8571.5	0.5	0.033333	999	0	0	0	0	;
	959	910	8571.5	0.5	0.033333	999	0	0	0	0	;
	839	910	8571.5	0.5	0.033333	999	0	0	0	0	;
	910	839	8571.5	0.5	0.033333	999	0	0	0	0	;
	759	839	8571.5	0.5	0.033333	999	0	0	0	0	;
	839	759	8571.5	0.5	0.033333	999	0	0	0	0	;
	530	759	8571.5	0.5	0.05	999	0	0	0	0	;
	759	530	8571.5	0.5	0.05	999	0	0	0	0	;
	413	530	8571.5	0.5	0.05	999	0	0	0	0	;
	530	413	8571.5	0.5	0.05	999	0	0	0	0	;
	394	413	8571.5	0.5	0.033333	999	0	0	0	0	;
	413	394	8571.5	0.5	0.033333	999	0	0	0	0	;
	346	394	8571.5	0.5	0.05	999	0	0	0	0	;
	394	346	8571.5	0.5	0.05	999	0	0	0	0	;
	138	346	8571.5	0.5	0.066667	999	0	0	0	0	;
	346	138	8571.5	0.5	0.066667	999	0	0	0	0	;
	644	735	8571.5	0.5	0.033333	999	0	0	0	0	;
	735	644	8571.5	0.5	0.033333	999	0	0	0	0	;
	530	644	8571.5	0.5	0.033333	999	0	0	0	0	;
	644	530	8571.5	0.5	0.033333	999	0	0	0	0	;
	458	530	8571.5	0.5	0.016667	999	0	0	0	0	;
	530	458	8571.5	0.5	0.016667	999	0	0	0	0	;
	413	458	8571.5	0.5	0.016667	999	0	0	0	0	;
	458	413	8571.5	0.5	0.016667	999	0	0	0	0	;
	394	413	8571.5	0.5	0.016667	999	0	0	0	0	;
	413	394	8571.5	0.5	0.016667	999	0	0	0	0	;
	377	394	8571.5	0.5	0.016667	999	0	0	0	0	;
	394	377	8571.5	0.5	0.016667	999	0	0	0	0	;
	362	377	8571.5	0.5	0.016667	999	0	0	0	0	;
	377	362	8571.5	0.5	0.016667	999	0	0	0	0	;
	346	362	8571.5	0.5	0.016667	999	0	0	0	0	;
	362	346	8571.5	0.5	0.016667	999	0	0	0	0	;
	332	346	8571.5	0.5	0.016667	999	0	0	0	0	;
	346	332	8571.5	0.5	0.016667	999	0	0	0	0	;
	208	332	8571.5	0.5	0.033333	999	0	0	0	0	;
	332	208	8571.5	0.5	0.033333	999	0	0	0	0	;
	118	208	8571.5	0.5	0.033333	999	0	0	0	0	;
	208	118	8571.5	0.5	0.033333	999	0	0	0	0	;
	62	118	8571.5	0.5	0.05	999	0	0	0	0	;
	118	62	8571.5	0.5	0.05	999	0	0	0	0	;
	31	62	8571.5	0.5	0.05	999	0	0	0	0	;
	62	31	8571.5	0.5	0.05	999	0	0	0	0	;
	99999253	31	8571.5	0.5	0.033333	999	0	0	0	0	;
	31	99999253	8571.5	0.5	0.033333	999	0	0	0	0	;
	17	99999253	8571.5	0.5	0.033333	999	0	0	0	0	;
	99999253	17	8571.5	0.5	0.033333	999	0	0	0	0	;
	413	539	20000	0.5	0.033333	999	0	0	0	0	;
	539	413	20000	0.5	0.033333	999	0	0	0	0	;
	644	735	6000	0.5	0.033333	999	0	0	0	0	;
	735	644	6000	0.5	0.033333	999	0	0	0	0	;
	530	644	6000	0.5	0.033333	999	0	0	0	0	;
	644	530	6000	0.5	0.033333	999	0	0	0	0	;
	458	530	6000	0.5	0.033333	999	0	0	0	0	;
	530	458	6000	0.5	0.033333	999	0	0	0	0	;
	413	458	6000	0.5	0.016667	999	0	0	0	0	;
	458	413	6000	0.5	0.016667	999	0	0	0	0	;
	394	413	6000	0.5	0.033333	999	0	0	0	0	;
	413	394	6000	0.5	0.033333	999	0	0	0	0	;
	377	394	6000	0.5	0.016667	999	0	0	0	0	;
	394	377	6000	0.5	0.016667	999	0	0	0	0	;
	362	377	6000	0.5	0.016667	999	0	0	0	0	;
	377	362	6000	0.5	0.016667	999	0	0	0	0	;
	346	362	6000	0.5	0.016667	999	0	0	0	0	;
	362	346	6000	0.5	0.016667	999	0	0	0	0	;
	332	346	6000	0.5	0.016667	999	0	0	0	0	;
	346	332	6000	0.5	0.016667	999	0	0	0	0	;
	208	332	6000	0.5	0.033333	999	0	0	0	0	;
	332	208	6000	0.5	0.033333	999	0	0	0	0	;
	118	208	6000	0.5	0.033333	999	0	0	0	0	;
	208	118	6000	0.5	0.033333	999	0	0	0	0	;
	62	118	6000	0.5	0.033333	999	0	0	0	0	;
	118	62	6000	0.5	0.033333	999	0	0	0	0	;
	31	62	6000	0.5	0.033333	999	0	0	0	0	;
	62	31	6000	0.5	0.033333	999	0	0	0	0	;
	99999271	31	6000	0.5	0.033333	999	0	0	0	0	;
	31	99999271	6000	0.5	0.033333	999	0	0	0	0	;
	17	99999271	6000	0.5	0.033333	999	0	0	0	0	;
	99999271	17	6000	0.5	0.033333	999	0	0	0	0	;
