<NUMBER OF ZONES> 8658
<NUMBER OF NODES> 1351
<FIRST THRU NODE> 1
<NUMBER OF LINKS> 4330
<END OF METADATA>
~  Init node  Term node  Capacity  Length  Free Flow Time  B  Power  Speed limit  Toll  Type  ;
	3	1	999999	0.031878	0.01012	999	0	0	0	0	;
	4	1	999999	0.10801	0.03429	999	0	0	0	0	;
	5	1	999999	0.1433	0.045493	999	0	0	0	0	;
	3	2	999999	0.005739	0.0018219	999	0	0	0	0	;
	5	2	999999	0.15413	0.048931	999	0	0	0	0	;
	9	2	999999	0.07613	0.024168	999	0	0	0	0	;
	1	3	999999	0.031878	0.01012	999	0	0	0	0	;
	2	3	999999	0.005739	0.0018219	999	0	0	0	0	;
	8	3	999999	0.074021	0.023499	999	0	0	0	0	;
	1	4	999999	0.10801	0.03429	999	0	0	0	0	;
	6	4	999999	0.054928	0.017437	999	0	0	0	0	;
	7	4	999999	0.2313	0.073429	999	0	0	0	0	;
	33	4	999999	0.47105	0.14954	999	0	0	0	0	;
	1	5	999999	0.1433	0.045493	999	0	0	0	0	;
	2	5	999999	0.15413	0.048931	999	0	0	0	0	;
	6	5	999999	0.018521	0.0058797	999	0	0	0	0	;
	37	5	999999	0.48035	0.15249	999	0	0	0	0	;
	4	6	999999	0.054928	0.017437	999	0	0	0	0	;
	5	6	999999	0.018521	0.0058797	999	0	0	0	0	;
	15	6	999999	0.5646	0.17924	999	0	0	0	0	;
	4	7	999999	0.2313	0.073429	999	0	0	0	0	;
	14	7	999999	0.38551	0.12238	999	0	0	0	0	;
	3	8	999999	0.074021	0.023499	999	0	0	0	0	;
	9	8	999999	0.0066543	0.0021125	999	0	0	0	0	;
	10	8	999999	0.043152	0.013699	999	0	0	0	0	;
	2	9	999999	0.07613	0.024168	999	0	0	0	0	;
	8	9	999999	0.0066543	0.0021125	999	0	0	0	0	;
	11	9	999999	0.042194	0.013395	999	0	0	0	0	;
	31	9	999999	0.56544	0.1795	999	0	0	0	0	;
	8	10	999999	0.043152	0.013699	999	0	0	0	0	;
	11	10	999999	0.0082523	0.0026198	999	0	0	0	0	;
	12	10	999999	0.12706	0.040338	999	0	0	0	0	;
	9	11	999999	0.042194	0.013395	999	0	0	0	0	;
	10	11	999999	0.0082523	0.0026198	999	0	0	0	0	;
	43	11	999999	0.55412	0.17591	999	0	0	0	0	;
	10	12	999999	0.12706	0.040338	999	0	0	0	0	;
	13	12	999999	0.028454	0.0090329	999	0	0	0	0	;
	12	13	999999	0.028454	0.0090329	999	0	0	0	0	;
	17	13	999999	0.04887	0.015514	999	0	0	0	0	;
	7	14	999999	0.38551	0.12238	999	0	0	0	0	;
	15	14	999999	0.018309	0.0058123	999	0	0	0	0	;
	16	14	999999	0.1393	0.044223	999	0	0	0	0	;
	6	15	999999	0.5646	0.17924	999	0	0	0	0	;
	14	15	999999	0.018309	0.0058123	999	0	0	0	0	;
	18	15	999999	0.1337	0.042446	999	0	0	0	0	;
	34	15	999999	0.25458	0.080818	999	0	0	0	0	;
	36	15	999999	0.21195	0.067286	999	0	0	0	0	;
	39	15	999999	0.25072	0.079593	999	0	0	0	0	;
	14	16	999999	0.1393	0.044223	999	0	0	0	0	;
	18	16	999999	0.017293	0.0054898	999	0	0	0	0	;
	22	16	999999	0.36075	0.11452	999	0	0	0	0	;
	24	16	999999	0.56077	0.17802	999	0	0	0	0	;
	13	17	999999	0.04887	0.015514	999	0	0	0	0	;
	19	17	999999	0.038852	0.012334	999	0	0	0	0	;
	21	17	999999	0.072454	0.023001	999	0	0	0	0	;
	15	18	999999	0.1337	0.042446	999	0	0	0	0	;
	16	18	999999	0.017293	0.0054898	999	0	0	0	0	;
	20	18	999999	0.034155	0.010843	999	0	0	0	0	;
	22	18	999999	0.36669	0.11641	999	0	0	0	0	;
	17	19	999999	0.038852	0.012334	999	0	0	0	0	;
	23	19	999999	0.040459	0.012844	999	0	0	0	0	;
	18	20	999999	0.034155	0.010843	999	0	0	0	0	;
	26	20	999999	0.077391	0.024569	999	0	0	0	0	;
	17	21	999999	0.072454	0.023001	999	0	0	0	0	;
	33	21	999999	0.12066	0.038305	999	0	0	0	0	;
	37	21	999999	0.16706	0.053036	999	0	0	0	0	;
	54	21	999999	0.24449	0.077617	999	0	0	0	0	;
	55	21	999999	0.25343	0.080453	999	0	0	0	0	;
	16	22	999999	0.36075	0.11452	999	0	0	0	0	;
	18	22	999999	0.36669	0.11641	999	0	0	0	0	;
	25	22	999999	0.20043	0.063627	999	0	0	0	0	;
	48	22	999999	0.18101	0.057464	999	0	0	0	0	;
	19	23	999999	0.040459	0.012844	999	0	0	0	0	;
	41	23	999999	0.16775	0.053254	999	0	0	0	0	;
	16	24	999999	0.56077	0.17802	999	0	0	0	0	;
	25	24	999999	0.012556	0.0039862	999	0	0	0	0	;
	27	24	999999	0.04545	0.014429	999	0	0	0	0	;
	28	24	999999	0.3231	0.10257	999	0	0	0	0	;
	29	24	999999	0.27347	0.086817	999	0	0	0	0	;
	22	25	999999	0.20043	0.063627	999	0	0	0	0	;
	24	25	999999	0.012556	0.0039862	999	0	0	0	0	;
	27	25	999999	0.043872	0.013928	999	0	0	0	0	;
	51	25	999999	0.19524	0.06198	999	0	0	0	0	;
	20	26	999999	0.077391	0.024569	999	0	0	0	0	;
	36	26	999999	0.10556	0.033511	999	0	0	0	0	;
	24	27	999999	0.04545	0.014429	999	0	0	0	0	;
	25	27	999999	0.043872	0.013928	999	0	0	0	0	;
	29	27	999999	0.2302	0.07308	999	0	0	0	0	;
	52	27	999999	0.21295	0.067602	999	0	0	0	0	;
	24	28	999999	0.3231	0.10257	999	0	0	0	0	;
	30	28	999999	0.010706	0.0033987	999	0	0	0	0	;
	32	28	999999	0.62389	0.19806	999	0	0	0	0	;
	38	28	999999	0.88108	0.27971	999	0	0	0	0	;
	24	29	999999	0.27347	0.086817	999	0	0	0	0	;
	27	29	999999	0.2302	0.07308	999	0	0	0	0	;
	30	29	999999	0.04958	0.01574	999	0	0	0	0	;
	63	29	999999	0.18459	0.0586	999	0	0	0	0	;
	28	30	999999	0.010706	0.0033987	999	0	0	0	0	;
	29	30	999999	0.04958	0.01574	999	0	0	0	0	;
	32	30	999999	0.62464	0.1983	999	0	0	0	0	;
	65	30	999999	0.18655	0.059223	999	0	0	0	0	;
	9	31	999999	0.56544	0.1795	999	0	0	0	0	;
	34	31	999999	0.051055	0.016208	999	0	0	0	0	;
	43	31	999999	0.092814	0.029465	999	0	0	0	0	;
	28	32	999999	0.62389	0.19806	999	0	0	0	0	;
	30	32	999999	0.62464	0.1983	999	0	0	0	0	;
	35	32	999999	0.040438	0.012838	999	0	0	0	0	;
	42	32	999999	0.25398	0.080628	999	0	0	0	0	;
	4	33	999999	0.47105	0.14954	999	0	0	0	0	;
	21	33	999999	0.12066	0.038305	999	0	0	0	0	;
	54	33	999999	0.12961	0.041146	999	0	0	0	0	;
	114	33	999999	0.5001	0.15876	999	0	0	0	0	;
	15	34	999999	0.25458	0.080818	999	0	0	0	0	;
	31	34	999999	0.051055	0.016208	999	0	0	0	0	;
	39	34	999999	0.085973	0.027293	999	0	0	0	0	;
	50	34	999999	0.096546	0.030649	999	0	0	0	0	;
	32	35	999999	0.040438	0.012838	999	0	0	0	0	;
	45	35	999999	0.21499	0.068251	999	0	0	0	0	;
	49	35	999999	0.20665	0.065603	999	0	0	0	0	;
	15	36	999999	0.21195	0.067286	999	0	0	0	0	;
	26	36	999999	0.10556	0.033511	999	0	0	0	0	;
	40	36	999999	0.040478	0.01285	999	0	0	0	0	;
	5	37	999999	0.48035	0.15249	999	0	0	0	0	;
	21	37	999999	0.16706	0.053036	999	0	0	0	0	;
	143	37	999999	0.66415	0.21084	999	0	0	0	0	;
	206	37	999999	0.79025	0.25087	999	0	0	0	0	;
	28	38	999999	0.88108	0.27971	999	0	0	0	0	;
	42	38	999999	0.012332	0.0039148	999	0	0	0	0	;
	44	38	999999	0.052115	0.016545	999	0	0	0	0	;
	46	38	999999	0.55011	0.17464	999	0	0	0	0	;
	59	38	999999	0.40232	0.12772	999	0	0	0	0	;
	15	39	999999	0.25072	0.079593	999	0	0	0	0	;
	34	39	999999	0.085973	0.027293	999	0	0	0	0	;
	60	39	999999	0.1325	0.042064	999	0	0	0	0	;
	62	39	999999	0.10061	0.031939	999	0	0	0	0	;
	36	40	999999	0.040478	0.01285	999	0	0	0	0	;
	48	40	999999	0.41523	0.13182	999	0	0	0	0	;
	60	40	999999	0.078051	0.024778	999	0	0	0	0	;
	70	40	999999	0.32783	0.10407	999	0	0	0	0	;
	81	40	999999	0.32733	0.10391	999	0	0	0	0	;
	23	41	999999	0.16775	0.053254	999	0	0	0	0	;
	79	41	999999	0.19836	0.062971	999	0	0	0	0	;
	32	42	999999	0.25398	0.080628	999	0	0	0	0	;
	38	42	999999	0.012332	0.0039148	999	0	0	0	0	;
	44	42	999999	0.05725	0.018175	999	0	0	0	0	;
	45	42	999999	0.0092894	0.002949	999	0	0	0	0	;
	11	43	999999	0.55412	0.17591	999	0	0	0	0	;
	31	43	999999	0.092814	0.029465	999	0	0	0	0	;
	50	43	999999	0.049794	0.015808	999	0	0	0	0	;
	78	43	999999	0.14185	0.045032	999	0	0	0	0	;
	38	44	999999	0.052115	0.016545	999	0	0	0	0	;
	42	44	999999	0.05725	0.018175	999	0	0	0	0	;
	57	44	999999	0.049745	0.015792	999	0	0	0	0	;
	58	44	999999	0.32147	0.10205	999	0	0	0	0	;
	35	45	999999	0.21499	0.068251	999	0	0	0	0	;
	42	45	999999	0.0092894	0.002949	999	0	0	0	0	;
	49	45	999999	0.022937	0.0072816	999	0	0	0	0	;
	57	45	999999	0.055017	0.017466	999	0	0	0	0	;
	38	46	999999	0.55011	0.17464	999	0	0	0	0	;
	47	46	999999	0.013008	0.0041294	999	0	0	0	0	;
	68	46	999999	0.29992	0.095213	999	0	0	0	0	;
	46	47	999999	0.013008	0.0041294	999	0	0	0	0	;
	53	47	999999	0.028765	0.0091318	999	0	0	0	0	;
	59	47	999999	0.15043	0.047755	999	0	0	0	0	;
	71	47	999999	0.29915	0.094968	999	0	0	0	0	;
	22	48	999999	0.18101	0.057464	999	0	0	0	0	;
	40	48	999999	0.41523	0.13182	999	0	0	0	0	;
	51	48	999999	0.11682	0.037087	999	0	0	0	0	;
	35	49	999999	0.20665	0.065603	999	0	0	0	0	;
	45	49	999999	0.022937	0.0072816	999	0	0	0	0	;
	57	49	999999	0.055469	0.017609	999	0	0	0	0	;
	82	49	999999	0.16966	0.05386	999	0	0	0	0	;
	34	50	999999	0.096546	0.030649	999	0	0	0	0	;
	43	50	999999	0.049794	0.015808	999	0	0	0	0	;
	56	50	999999	0.030314	0.0096234	999	0	0	0	0	;
	62	50	999999	0.087053	0.027636	999	0	0	0	0	;
	25	51	999999	0.19524	0.06198	999	0	0	0	0	;
	48	51	999999	0.11682	0.037087	999	0	0	0	0	;
	52	51	999999	0.0072564	0.0023036	999	0	0	0	0	;
	69	51	999999	0.082033	0.026042	999	0	0	0	0	;
	27	52	999999	0.21295	0.067602	999	0	0	0	0	;
	51	52	999999	0.0072564	0.0023036	999	0	0	0	0	;
	61	52	999999	0.031089	0.0098694	999	0	0	0	0	;
	63	52	999999	0.35056	0.11129	999	0	0	0	0	;
	47	53	999999	0.028765	0.0091318	999	0	0	0	0	;
	66	53	999999	0.052322	0.01661	999	0	0	0	0	;
	21	54	999999	0.24449	0.077617	999	0	0	0	0	;
	33	54	999999	0.12961	0.041146	999	0	0	0	0	;
	55	54	999999	0.019109	0.0060664	999	0	0	0	0	;
	21	55	999999	0.25343	0.080453	999	0	0	0	0	;
	54	55	999999	0.019109	0.0060664	999	0	0	0	0	;
	76	55	999999	0.1019	0.03235	999	0	0	0	0	;
	50	56	999999	0.030314	0.0096234	999	0	0	0	0	;
	78	56	999999	0.090146	0.028618	999	0	0	0	0	;
	90	56	999999	0.16147	0.051261	999	0	0	0	0	;
	44	57	999999	0.049745	0.015792	999	0	0	0	0	;
	45	57	999999	0.055017	0.017466	999	0	0	0	0	;
	49	57	999999	0.055469	0.017609	999	0	0	0	0	;
	89	57	999999	0.1699	0.053937	999	0	0	0	0	;
	95	57	999999	0.38537	0.12234	999	0	0	0	0	;
	44	58	999999	0.32147	0.10205	999	0	0	0	0	;
	59	58	999999	0.029784	0.0094552	999	0	0	0	0	;
	67	58	999999	0.087597	0.027808	999	0	0	0	0	;
	38	59	999999	0.40232	0.12772	999	0	0	0	0	;
	47	59	999999	0.15043	0.047755	999	0	0	0	0	;
	58	59	999999	0.029784	0.0094552	999	0	0	0	0	;
	64	59	999999	0.060472	0.019197	999	0	0	0	0	;
	39	60	999999	0.1325	0.042064	999	0	0	0	0	;
	40	60	999999	0.078051	0.024778	999	0	0	0	0	;
	86	60	999999	0.33085	0.10503	999	0	0	0	0	;
	52	61	999999	0.031089	0.0098694	999	0	0	0	0	;
	69	61	999999	0.055144	0.017506	999	0	0	0	0	;
	39	62	999999	0.10061	0.031939	999	0	0	0	0	;
	50	62	999999	0.087053	0.027636	999	0	0	0	0	;
	109	62	999999	0.46079	0.14628	999	0	0	0	0	;
	29	63	999999	0.18459	0.0586	999	0	0	0	0	;
	52	63	999999	0.35056	0.11129	999	0	0	0	0	;
	65	63	999999	0.050951	0.016175	999	0	0	0	0	;
	83	63	999999	0.094537	0.030012	999	0	0	0	0	;
	59	64	999999	0.060472	0.019197	999	0	0	0	0	;
	67	64	999999	0.0063249	0.0020079	999	0	0	0	0	;
	72	64	999999	0.049697	0.015777	999	0	0	0	0	;
	30	65	999999	0.18655	0.059223	999	0	0	0	0	;
	63	65	999999	0.050951	0.016175	999	0	0	0	0	;
	83	65	999999	0.10742	0.0341	999	0	0	0	0	;
	106	65	999999	0.72237	0.22932	999	0	0	0	0	;
	53	66	999999	0.052322	0.01661	999	0	0	0	0	;
	72	66	999999	0.023144	0.0073473	999	0	0	0	0	;
	58	67	999999	0.087597	0.027808	999	0	0	0	0	;
	64	67	999999	0.0063249	0.0020079	999	0	0	0	0	;
	72	67	999999	0.049952	0.015858	999	0	0	0	0	;
	95	67	999999	0.16766	0.053225	999	0	0	0	0	;
	46	68	999999	0.29992	0.095213	999	0	0	0	0	;
	71	68	999999	0.01398	0.0044382	999	0	0	0	0	;
	88	68	999999	0.20096	0.063797	999	0	0	0	0	;
	51	69	999999	0.082033	0.026042	999	0	0	0	0	;
	61	69	999999	0.055144	0.017506	999	0	0	0	0	;
	75	69	999999	0.03314	0.010521	999	0	0	0	0	;
	40	70	999999	0.32783	0.10407	999	0	0	0	0	;
	73	70	999999	0.013406	0.0042559	999	0	0	0	0	;
	74	70	999999	0.095741	0.030394	999	0	0	0	0	;
	47	71	999999	0.29915	0.094968	999	0	0	0	0	;
	68	71	999999	0.01398	0.0044382	999	0	0	0	0	;
	91	71	999999	0.20059	0.063679	999	0	0	0	0	;
	99	71	999999	0.16854	0.053505	999	0	0	0	0	;
	64	72	999999	0.049697	0.015777	999	0	0	0	0	;
	66	72	999999	0.023144	0.0073473	999	0	0	0	0	;
	67	72	999999	0.049952	0.015858	999	0	0	0	0	;
	99	72	999999	0.29518	0.093706	999	0	0	0	0	;
	70	73	999999	0.013406	0.0042559	999	0	0	0	0	;
	81	73	999999	0.046906	0.014891	999	0	0	0	0	;
	85	73	999999	0.065104	0.020668	999	0	0	0	0	;
	70	74	999999	0.095741	0.030394	999	0	0	0	0	;
	75	74	999999	0.052239	0.016584	999	0	0	0	0	;
	84	74	999999	0.059108	0.018765	999	0	0	0	0	;
	69	75	999999	0.03314	0.010521	999	0	0	0	0	;
	74	75	999999	0.052239	0.016584	999	0	0	0	0	;
	77	75	999999	0.086438	0.027441	999	0	0	0	0	;
	84	75	999999	0.073654	0.023382	999	0	0	0	0	;
	55	76	999999	0.1019	0.03235	999	0	0	0	0	;
	93	76	999999	0.10593	0.033628	999	0	0	0	0	;
	75	77	999999	0.086438	0.027441	999	0	0	0	0	;
	80	77	999999	0.043095	0.013681	999	0	0	0	0	;
	92	77	999999	0.071054	0.022557	999	0	0	0	0	;
	43	78	999999	0.14185	0.045032	999	0	0	0	0	;
	56	78	999999	0.090146	0.028618	999	0	0	0	0	;
	102	78	999999	0.17793	0.056484	999	0	0	0	0	;
	41	79	999999	0.19836	0.062971	999	0	0	0	0	;
	93	79	999999	0.091852	0.029159	999	0	0	0	0	;
	96	79	999999	0.13748	0.043643	999	0	0	0	0	;
	77	80	999999	0.043095	0.013681	999	0	0	0	0	;
	83	80	999999	0.29275	0.092937	999	0	0	0	0	;
	40	81	999999	0.32733	0.10391	999	0	0	0	0	;
	73	81	999999	0.046906	0.014891	999	0	0	0	0	;
	86	81	999999	0.028909	0.0091774	999	0	0	0	0	;
	49	82	999999	0.16966	0.05386	999	0	0	0	0	;
	87	82	999999	0.014252	0.0045244	999	0	0	0	0	;
	63	83	999999	0.094537	0.030012	999	0	0	0	0	;
	65	83	999999	0.10742	0.0341	999	0	0	0	0	;
	80	83	999999	0.29275	0.092937	999	0	0	0	0	;
	105	83	999999	0.13223	0.041979	999	0	0	0	0	;
	127	83	999999	0.59594	0.18919	999	0	0	0	0	;
	74	84	999999	0.059108	0.018765	999	0	0	0	0	;
	75	84	999999	0.073654	0.023382	999	0	0	0	0	;
	85	84	999999	0.083146	0.026396	999	0	0	0	0	;
	92	84	999999	0.12701	0.040322	999	0	0	0	0	;
	94	84	999999	0.048037	0.01525	999	0	0	0	0	;
	73	85	999999	0.065104	0.020668	999	0	0	0	0	;
	84	85	999999	0.083146	0.026396	999	0	0	0	0	;
	86	85	999999	0.054293	0.017236	999	0	0	0	0	;
	94	85	999999	0.059882	0.01901	999	0	0	0	0	;
	60	86	999999	0.33085	0.10503	999	0	0	0	0	;
	81	86	999999	0.028909	0.0091774	999	0	0	0	0	;
	85	86	999999	0.054293	0.017236	999	0	0	0	0	;
	109	86	999999	0.16421	0.052132	999	0	0	0	0	;
	82	87	999999	0.014252	0.0045244	999	0	0	0	0	;
	89	87	999999	0.05734	0.018203	999	0	0	0	0	;
	107	87	999999	0.15202	0.048262	999	0	0	0	0	;
	68	88	999999	0.20096	0.063797	999	0	0	0	0	;
	91	88	999999	0.013776	0.0043732	999	0	0	0	0	;
	124	88	999999	0.39924	0.12674	999	0	0	0	0	;
	57	89	999999	0.1699	0.053937	999	0	0	0	0	;
	87	89	999999	0.05734	0.018203	999	0	0	0	0	;
	123	89	999999	0.38453	0.12207	999	0	0	0	0	;
	56	90	999999	0.16147	0.051261	999	0	0	0	0	;
	97	90	999999	0.061763	0.019607	999	0	0	0	0	;
	71	91	999999	0.20059	0.063679	999	0	0	0	0	;
	88	91	999999	0.013776	0.0043732	999	0	0	0	0	;
	108	91	999999	0.13431	0.042639	999	0	0	0	0	;
	116	91	999999	0.29836	0.094719	999	0	0	0	0	;
	77	92	999999	0.071054	0.022557	999	0	0	0	0	;
	84	92	999999	0.12701	0.040322	999	0	0	0	0	;
	103	92	999999	0.097813	0.031052	999	0	0	0	0	;
	104	92	999999	0.33562	0.10654	999	0	0	0	0	;
	76	93	999999	0.10593	0.033628	999	0	0	0	0	;
	79	93	999999	0.091852	0.029159	999	0	0	0	0	;
	98	93	999999	0.06086	0.019321	999	0	0	0	0	;
	84	94	999999	0.048037	0.01525	999	0	0	0	0	;
	85	94	999999	0.059882	0.01901	999	0	0	0	0	;
	100	94	999999	0.083486	0.026504	999	0	0	0	0	;
	118	94	999999	0.19885	0.063128	999	0	0	0	0	;
	57	95	999999	0.38537	0.12234	999	0	0	0	0	;
	67	95	999999	0.16766	0.053225	999	0	0	0	0	;
	123	95	999999	0.1691	0.053682	999	0	0	0	0	;
	131	95	999999	0.34781	0.11041	999	0	0	0	0	;
	79	96	999999	0.13748	0.043643	999	0	0	0	0	;
	111	96	999999	0.12733	0.040422	999	0	0	0	0	;
	90	97	999999	0.061763	0.019607	999	0	0	0	0	;
	101	97	999999	0.042443	0.013474	999	0	0	0	0	;
	93	98	999999	0.06086	0.019321	999	0	0	0	0	;
	144	98	999999	0.24585	0.078047	999	0	0	0	0	;
	71	99	999999	0.16854	0.053505	999	0	0	0	0	;
	72	99	999999	0.29518	0.093706	999	0	0	0	0	;
	117	99	999999	0.20053	0.063659	999	0	0	0	0	;
	131	99	999999	0.1724	0.05473	999	0	0	0	0	;
	94	100	999999	0.083486	0.026504	999	0	0	0	0	;
	103	100	999999	0.0764	0.024254	999	0	0	0	0	;
	136	100	999999	0.19603	0.062231	999	0	0	0	0	;
	97	101	999999	0.042443	0.013474	999	0	0	0	0	;
	130	101	999999	0.32824	0.1042	999	0	0	0	0	;
	142	101	999999	0.32747	0.10396	999	0	0	0	0	;
	78	102	999999	0.17793	0.056484	999	0	0	0	0	;
	120	102	999999	0.11101	0.035243	999	0	0	0	0	;
	92	103	999999	0.097813	0.031052	999	0	0	0	0	;
	100	103	999999	0.0764	0.024254	999	0	0	0	0	;
	132	103	999999	0.20345	0.064587	999	0	0	0	0	;
	150	103	999999	0.19595	0.062207	999	0	0	0	0	;
	92	104	999999	0.33562	0.10654	999	0	0	0	0	;
	105	104	999999	0.0089603	0.0028445	999	0	0	0	0	;
	147	104	999999	0.18069	0.057363	999	0	0	0	0	;
	83	105	999999	0.13223	0.041979	999	0	0	0	0	;
	104	105	999999	0.0089603	0.0028445	999	0	0	0	0	;
	113	105	999999	0.024186	0.0076781	999	0	0	0	0	;
	156	105	999999	0.40737	0.12933	999	0	0	0	0	;
	65	106	999999	0.72237	0.22932	999	0	0	0	0	;
	107	106	999999	0.028346	0.0089988	999	0	0	0	0	;
	110	106	999999	0.027815	0.0088302	999	0	0	0	0	;
	112	106	999999	0.049378	0.015676	999	0	0	0	0	;
	87	107	999999	0.15202	0.048262	999	0	0	0	0	;
	106	107	999999	0.028346	0.0089988	999	0	0	0	0	;
	110	107	999999	0.0050725	0.0016103	999	0	0	0	0	;
	91	108	999999	0.13431	0.042639	999	0	0	0	0	;
	117	108	999999	0.032922	0.010451	999	0	0	0	0	;
	62	109	999999	0.46079	0.14628	999	0	0	0	0	;
	86	109	999999	0.16421	0.052132	999	0	0	0	0	;
	118	109	999999	0.063389	0.020123	999	0	0	0	0	;
	130	109	999999	0.09503	0.030168	999	0	0	0	0	;
	106	110	999999	0.027815	0.0088302	999	0	0	0	0	;
	107	110	999999	0.0050725	0.0016103	999	0	0	0	0	;
	115	110	999999	0.028722	0.0091181	999	0	0	0	0	;
	154	110	999999	0.17172	0.054516	999	0	0	0	0	;
	96	111	999999	0.12733	0.040422	999	0	0	0	0	;
	120	111	999999	0.063288	0.020091	999	0	0	0	0	;
	106	112	999999	0.049378	0.015676	999	0	0	0	0	;
	127	112	999999	0.1666	0.052888	999	0	0	0	0	;
	105	113	999999	0.024186	0.0076781	999	0	0	0	0	;
	149	113	999999	0.15916	0.050526	999	0	0	0	0	;
	156	113	999999	0.40533	0.12868	999	0	0	0	0	;
	33	114	999999	0.5001	0.15876	999	0	0	0	0	;
	145	114	999999	0.16817	0.053388	999	0	0	0	0	;
	595	114	999999	1.5613	0.49566	999	0	0	0	0	;
	110	115	999999	0.028722	0.0091181	999	0	0	0	0	;
	122	115	999999	0.096742	0.030712	999	0	0	0	0	;
	91	116	999999	0.29836	0.094719	999	0	0	0	0	;
	129	116	999999	0.10126	0.032147	999	0	0	0	0	;
	163	116	999999	0.16957	0.05383	999	0	0	0	0	;
	99	117	999999	0.20053	0.063659	999	0	0	0	0	;
	108	117	999999	0.032922	0.010451	999	0	0	0	0	;
	119	117	999999	0.021549	0.006841	999	0	0	0	0	;
	128	117	999999	0.10287	0.032656	999	0	0	0	0	;
	94	118	999999	0.19885	0.063128	999	0	0	0	0	;
	109	118	999999	0.063389	0.020123	999	0	0	0	0	;
	136	118	999999	0.11847	0.037609	999	0	0	0	0	;
	138	118	999999	0.098159	0.031161	999	0	0	0	0	;
	117	119	999999	0.021549	0.006841	999	0	0	0	0	;
	164	119	999999	0.15226	0.048335	999	0	0	0	0	;
	102	120	999999	0.11101	0.035243	999	0	0	0	0	;
	111	120	999999	0.063288	0.020091	999	0	0	0	0	;
	121	120	999999	0.0096876	0.0030754	999	0	0	0	0	;
	144	120	999999	0.13777	0.043738	999	0	0	0	0	;
	145	120	999999	0.12954	0.041122	999	0	0	0	0	;
	120	121	999999	0.0096876	0.0030754	999	0	0	0	0	;
	125	121	999999	0.036102	0.011461	999	0	0	0	0	;
	595	121	999999	1.4381	0.45654	999	0	0	0	0	;
	115	122	999999	0.096742	0.030712	999	0	0	0	0	;
	139	122	999999	0.09179	0.02914	999	0	0	0	0	;
	89	123	999999	0.38453	0.12207	999	0	0	0	0	;
	95	123	999999	0.1691	0.053682	999	0	0	0	0	;
	170	123	999999	0.1688	0.053586	999	0	0	0	0	;
	180	123	999999	0.349	0.11079	999	0	0	0	0	;
	88	124	999999	0.39924	0.12674	999	0	0	0	0	;
	129	124	999999	0.015738	0.0049963	999	0	0	0	0	;
	168	124	999999	0.2088	0.066287	999	0	0	0	0	;
	121	125	999999	0.036102	0.011461	999	0	0	0	0	;
	126	125	999999	0.01081	0.0034317	999	0	0	0	0	;
	143	125	999999	0.078833	0.025026	999	0	0	0	0	;
	595	125	999999	1.4115	0.44808	999	0	0	0	0	;
	125	126	999999	0.01081	0.0034317	999	0	0	0	0	;
	133	126	999999	0.027902	0.0088577	999	0	0	0	0	;
	160	126	999999	0.1324	0.042033	999	0	0	0	0	;
	161	126	999999	0.15154	0.048107	999	0	0	0	0	;
	83	127	999999	0.59594	0.18919	999	0	0	0	0	;
	112	127	999999	0.1666	0.052888	999	0	0	0	0	;
	146	127	999999	0.14306	0.045416	999	0	0	0	0	;
	154	127	999999	0.15683	0.049786	999	0	0	0	0	;
	117	128	999999	0.10287	0.032656	999	0	0	0	0	;
	134	128	999999	0.033255	0.010557	999	0	0	0	0	;
	178	128	999999	0.17341	0.055051	999	0	0	0	0	;
	116	129	999999	0.10126	0.032147	999	0	0	0	0	;
	124	129	999999	0.015738	0.0049963	999	0	0	0	0	;
	141	129	999999	0.036375	0.011547	999	0	0	0	0	;
	173	129	999999	0.2085	0.06619	999	0	0	0	0	;
	101	130	999999	0.32824	0.1042	999	0	0	0	0	;
	109	130	999999	0.09503	0.030168	999	0	0	0	0	;
	138	130	999999	0.042131	0.013375	999	0	0	0	0	;
	142	130	999999	0.043529	0.013819	999	0	0	0	0	;
	95	131	999999	0.34781	0.11041	999	0	0	0	0	;
	99	131	999999	0.1724	0.05473	999	0	0	0	0	;
	135	131	999999	0.018133	0.0057564	999	0	0	0	0	;
	164	131	999999	0.19918	0.063231	999	0	0	0	0	;
	103	132	999999	0.20345	0.064587	999	0	0	0	0	;
	147	132	999999	0.092097	0.029237	999	0	0	0	0	;
	126	133	999999	0.027902	0.0088577	999	0	0	0	0	;
	140	133	999999	0.039898	0.012666	999	0	0	0	0	;
	128	134	999999	0.033255	0.010557	999	0	0	0	0	;
	137	134	999999	0.014748	0.0046819	999	0	0	0	0	;
	131	135	999999	0.018133	0.0057564	999	0	0	0	0	;
	153	135	999999	0.053225	0.016897	999	0	0	0	0	;
	180	135	999999	0.15237	0.048371	999	0	0	0	0	;
	100	136	999999	0.19603	0.062231	999	0	0	0	0	;
	118	136	999999	0.11847	0.037609	999	0	0	0	0	;
	150	136	999999	0.078663	0.024972	999	0	0	0	0	;
	165	136	999999	0.10098	0.032058	999	0	0	0	0	;
	134	137	999999	0.014748	0.0046819	999	0	0	0	0	;
	151	137	999999	0.097856	0.031065	999	0	0	0	0	;
	189	137	999999	0.17277	0.054849	999	0	0	0	0	;
	118	138	999999	0.098159	0.031161	999	0	0	0	0	;
	130	138	999999	0.042131	0.013375	999	0	0	0	0	;
	148	138	999999	0.041805	0.013271	999	0	0	0	0	;
	165	138	999999	0.13634	0.043282	999	0	0	0	0	;
	122	139	999999	0.09179	0.02914	999	0	0	0	0	;
	155	139	999999	0.093923	0.029817	999	0	0	0	0	;
	133	140	999999	0.039898	0.012666	999	0	0	0	0	;
	152	140	999999	0.066276	0.02104	999	0	0	0	0	;
	129	141	999999	0.036375	0.011547	999	0	0	0	0	;
	176	141	999999	0.12794	0.040615	999	0	0	0	0	;
	101	142	999999	0.32747	0.10396	999	0	0	0	0	;
	130	142	999999	0.043529	0.013819	999	0	0	0	0	;
	148	142	999999	0.032331	0.010264	999	0	0	0	0	;
	169	142	999999	0.0957	0.030381	999	0	0	0	0	;
	37	143	999999	0.66415	0.21084	999	0	0	0	0	;
	125	143	999999	0.078833	0.025026	999	0	0	0	0	;
	158	143	999999	0.075468	0.023958	999	0	0	0	0	;
	98	144	999999	0.24585	0.078047	999	0	0	0	0	;
	120	144	999999	0.13777	0.043738	999	0	0	0	0	;
	158	144	999999	0.045158	0.014336	999	0	0	0	0	;
	114	145	999999	0.16817	0.053388	999	0	0	0	0	;
	120	145	999999	0.12954	0.041122	999	0	0	0	0	;
	127	146	999999	0.14306	0.045416	999	0	0	0	0	;
	156	146	999999	0.074974	0.023801	999	0	0	0	0	;
	104	147	999999	0.18069	0.057363	999	0	0	0	0	;
	132	147	999999	0.092097	0.029237	999	0	0	0	0	;
	149	147	999999	0.009529	0.0030251	999	0	0	0	0	;
	208	147	999999	0.19759	0.062728	999	0	0	0	0	;
	138	148	999999	0.041805	0.013271	999	0	0	0	0	;
	142	148	999999	0.032331	0.010264	999	0	0	0	0	;
	169	148	999999	0.095533	0.030328	999	0	0	0	0	;
	171	148	999999	0.14421	0.045782	999	0	0	0	0	;
	113	149	999999	0.15916	0.050526	999	0	0	0	0	;
	147	149	999999	0.009529	0.0030251	999	0	0	0	0	;
	210	149	999999	0.19646	0.062368	999	0	0	0	0	;
	103	150	999999	0.19595	0.062207	999	0	0	0	0	;
	136	150	999999	0.078663	0.024972	999	0	0	0	0	;
	179	150	999999	0.10111	0.032099	999	0	0	0	0	;
	208	150	999999	0.29647	0.094119	999	0	0	0	0	;
	137	151	999999	0.097856	0.031065	999	0	0	0	0	;
	163	151	999999	0.048238	0.015314	999	0	0	0	0	;
	140	152	999999	0.066276	0.02104	999	0	0	0	0	;
	177	152	999999	0.12783	0.04058	999	0	0	0	0	;
	290	152	999999	0.37977	0.12056	999	0	0	0	0	;
	135	153	999999	0.053225	0.016897	999	0	0	0	0	;
	157	153	999999	0.030141	0.0095684	999	0	0	0	0	;
	159	153	999999	0.030134	0.0095663	999	0	0	0	0	;
	180	153	999999	0.10418	0.033073	999	0	0	0	0	;
	110	154	999999	0.17172	0.054516	999	0	0	0	0	;
	127	154	999999	0.15683	0.049786	999	0	0	0	0	;
	207	154	999999	0.17149	0.054441	999	0	0	0	0	;
	222	154	999999	0.44017	0.13974	999	0	0	0	0	;
	139	155	999999	0.093923	0.029817	999	0	0	0	0	;
	167	155	999999	0.1006	0.031935	999	0	0	0	0	;
	105	156	999999	0.40737	0.12933	999	0	0	0	0	;
	113	156	999999	0.40533	0.12868	999	0	0	0	0	;
	146	156	999999	0.074974	0.023801	999	0	0	0	0	;
	207	156	999999	0.29318	0.093075	999	0	0	0	0	;
	210	156	999999	0.58553	0.18588	999	0	0	0	0	;
	153	157	999999	0.030141	0.0095684	999	0	0	0	0	;
	159	157	999999	0.0048795	0.001549	999	0	0	0	0	;
	164	157	999999	0.16344	0.051885	999	0	0	0	0	;
	183	157	999999	0.17654	0.056043	999	0	0	0	0	;
	212	157	999999	0.25392	0.08061	999	0	0	0	0	;
	143	158	999999	0.075468	0.023958	999	0	0	0	0	;
	144	158	999999	0.045158	0.014336	999	0	0	0	0	;
	166	158	999999	0.029285	0.009297	999	0	0	0	0	;
	153	159	999999	0.030134	0.0095663	999	0	0	0	0	;
	157	159	999999	0.0048795	0.001549	999	0	0	0	0	;
	184	159	999999	0.10698	0.033962	999	0	0	0	0	;
	191	159	999999	0.10092	0.032037	999	0	0	0	0	;
	243	159	999999	0.36681	0.11645	999	0	0	0	0	;
	126	160	999999	0.1324	0.042033	999	0	0	0	0	;
	162	160	999999	0.0064378	0.0020437	999	0	0	0	0	;
	126	161	999999	0.15154	0.048107	999	0	0	0	0	;
	206	161	999999	0.13508	0.042884	999	0	0	0	0	;
	160	162	999999	0.0064378	0.0020437	999	0	0	0	0	;
	166	162	999999	0.019971	0.00634	999	0	0	0	0	;
	186	162	999999	0.077009	0.024447	999	0	0	0	0	;
	116	163	999999	0.16957	0.05383	999	0	0	0	0	;
	151	163	999999	0.048238	0.015314	999	0	0	0	0	;
	176	163	999999	0.10355	0.032872	999	0	0	0	0	;
	119	164	999999	0.15226	0.048335	999	0	0	0	0	;
	131	164	999999	0.19918	0.063231	999	0	0	0	0	;
	157	164	999999	0.16344	0.051885	999	0	0	0	0	;
	175	164	999999	0.041588	0.013202	999	0	0	0	0	;
	178	164	999999	0.10238	0.032502	999	0	0	0	0	;
	136	165	999999	0.10098	0.032058	999	0	0	0	0	;
	138	165	999999	0.13634	0.043282	999	0	0	0	0	;
	171	165	999999	0.033549	0.01065	999	0	0	0	0	;
	179	165	999999	0.084203	0.026731	999	0	0	0	0	;
	158	166	999999	0.029285	0.009297	999	0	0	0	0	;
	162	166	999999	0.019971	0.00634	999	0	0	0	0	;
	186	166	999999	0.068188	0.021647	999	0	0	0	0	;
	155	167	999999	0.1006	0.031935	999	0	0	0	0	;
	170	167	999999	0.028379	0.0090092	999	0	0	0	0	;
	174	167	999999	0.027896	0.008856	999	0	0	0	0	;
	124	168	999999	0.2088	0.066287	999	0	0	0	0	;
	173	168	999999	0.013164	0.0041789	999	0	0	0	0	;
	202	168	999999	0.14801	0.046986	999	0	0	0	0	;
	204	168	999999	0.19585	0.062174	999	0	0	0	0	;
	142	169	999999	0.0957	0.030381	999	0	0	0	0	;
	148	169	999999	0.095533	0.030328	999	0	0	0	0	;
	190	169	999999	0.048476	0.015389	999	0	0	0	0	;
	123	170	999999	0.1688	0.053586	999	0	0	0	0	;
	167	170	999999	0.028379	0.0090092	999	0	0	0	0	;
	174	170	999999	0.0052721	0.0016737	999	0	0	0	0	;
	148	171	999999	0.14421	0.045782	999	0	0	0	0	;
	165	171	999999	0.033549	0.01065	999	0	0	0	0	;
	192	171	999999	0.086131	0.027343	999	0	0	0	0	;
	247	171	999999	0.21667	0.068785	999	0	0	0	0	;
	177	172	999999	0.020385	0.0064713	999	0	0	0	0	;
	181	172	999999	0.033253	0.010556	999	0	0	0	0	;
	185	172	999999	0.032653	0.010366	999	0	0	0	0	;
	129	173	999999	0.2085	0.06619	999	0	0	0	0	;
	168	173	999999	0.013164	0.0041789	999	0	0	0	0	;
	202	173	999999	0.14738	0.046787	999	0	0	0	0	;
	203	173	999999	0.13252	0.042069	999	0	0	0	0	;
	214	173	999999	0.12311	0.039084	999	0	0	0	0	;
	167	174	999999	0.027896	0.008856	999	0	0	0	0	;
	170	174	999999	0.0052721	0.0016737	999	0	0	0	0	;
	219	174	999999	0.14539	0.046156	999	0	0	0	0	;
	272	174	999999	0.54771	0.17387	999	0	0	0	0	;
	164	175	999999	0.041588	0.013202	999	0	0	0	0	;
	182	175	999999	0.023173	0.0073564	999	0	0	0	0	;
	141	176	999999	0.12794	0.040615	999	0	0	0	0	;
	163	176	999999	0.10355	0.032872	999	0	0	0	0	;
	198	176	999999	0.10275	0.032619	999	0	0	0	0	;
	201	176	999999	0.066858	0.021225	999	0	0	0	0	;
	152	177	999999	0.12783	0.04058	999	0	0	0	0	;
	172	177	999999	0.020385	0.0064713	999	0	0	0	0	;
	128	178	999999	0.17341	0.055051	999	0	0	0	0	;
	164	178	999999	0.10238	0.032502	999	0	0	0	0	;
	189	178	999999	0.048821	0.015499	999	0	0	0	0	;
	212	178	999999	0.093822	0.029785	999	0	0	0	0	;
	150	179	999999	0.10111	0.032099	999	0	0	0	0	;
	165	179	999999	0.084203	0.026731	999	0	0	0	0	;
	187	179	999999	0.042019	0.013339	999	0	0	0	0	;
	192	179	999999	0.032636	0.010361	999	0	0	0	0	;
	123	180	999999	0.349	0.11079	999	0	0	0	0	;
	135	180	999999	0.15237	0.048371	999	0	0	0	0	;
	153	180	999999	0.10418	0.033073	999	0	0	0	0	;
	184	180	999999	0.013248	0.0042056	999	0	0	0	0	;
	296	180	999999	0.34463	0.10941	999	0	0	0	0	;
	172	181	999999	0.033253	0.010556	999	0	0	0	0	;
	185	181	999999	0.0089886	0.0028535	999	0	0	0	0	;
	196	181	999999	0.040814	0.012957	999	0	0	0	0	;
	218	181	999999	0.20101	0.063811	999	0	0	0	0	;
	175	182	999999	0.023173	0.0073564	999	0	0	0	0	;
	194	182	999999	0.027511	0.0087338	999	0	0	0	0	;
	157	183	999999	0.17654	0.056043	999	0	0	0	0	;
	232	183	999999	0.16955	0.053826	999	0	0	0	0	;
	159	184	999999	0.10698	0.033962	999	0	0	0	0	;
	180	184	999999	0.013248	0.0042056	999	0	0	0	0	;
	191	184	999999	0.034426	0.010929	999	0	0	0	0	;
	172	185	999999	0.032653	0.010366	999	0	0	0	0	;
	181	185	999999	0.0089886	0.0028535	999	0	0	0	0	;
	188	185	999999	0.015772	0.0050068	999	0	0	0	0	;
	196	185	999999	0.041481	0.013169	999	0	0	0	0	;
	162	186	999999	0.077009	0.024447	999	0	0	0	0	;
	166	186	999999	0.068188	0.021647	999	0	0	0	0	;
	304	186	999999	0.31567	0.10021	999	0	0	0	0	;
	179	187	999999	0.042019	0.013339	999	0	0	0	0	;
	197	187	999999	0.02239	0.0071078	999	0	0	0	0	;
	185	188	999999	0.015772	0.0050068	999	0	0	0	0	;
	199	188	999999	0.02572	0.0081649	999	0	0	0	0	;
	137	189	999999	0.17277	0.054849	999	0	0	0	0	;
	178	189	999999	0.048821	0.015499	999	0	0	0	0	;
	220	189	999999	0.19787	0.062817	999	0	0	0	0	;
	245	189	999999	0.17171	0.054511	999	0	0	0	0	;
	169	190	999999	0.048476	0.015389	999	0	0	0	0	;
	195	190	999999	0.018009	0.0057171	999	0	0	0	0	;
	159	191	999999	0.10092	0.032037	999	0	0	0	0	;
	184	191	999999	0.034426	0.010929	999	0	0	0	0	;
	193	191	999999	0.0056437	0.0017917	999	0	0	0	0	;
	216	191	999999	0.15102	0.047944	999	0	0	0	0	;
	171	192	999999	0.086131	0.027343	999	0	0	0	0	;
	179	192	999999	0.032636	0.010361	999	0	0	0	0	;
	197	192	999999	0.044643	0.014172	999	0	0	0	0	;
	191	193	999999	0.0056437	0.0017917	999	0	0	0	0	;
	303	193	999999	0.33893	0.1076	999	0	0	0	0	;
	182	194	999999	0.027511	0.0087338	999	0	0	0	0	;
	200	194	999999	0.036787	0.011678	999	0	0	0	0	;
	216	194	999999	0.07777	0.024689	999	0	0	0	0	;
	190	195	999999	0.018009	0.0057171	999	0	0	0	0	;
	205	195	999999	0.031496	0.0099988	999	0	0	0	0	;
	181	196	999999	0.040814	0.012957	999	0	0	0	0	;
	185	196	999999	0.041481	0.013169	999	0	0	0	0	;