<NUMBER OF ZONES> 8658
<NUMBER OF NODES> 4
<FIRST THRU NODE> 1
<NUMBER OF LINKS> 6
<END OF METADATA>
~  Init node  Term node  Capacity  Length  Free Flow Time  B  Power  Speed limit  Toll  Type  ;
	2	1	20000	0.35412	0.016667	999	0	0	0	0	;
	1	2	20000	0.35412	0.016667	999	0	0	0	0	;
	3	2	20000	0.32371	0.033333	999	0	0	0	0	;
	2	3	20000	0.32371	0.033333	999	0	0	0	0	;
	4	3	20000	0.75173	0.05	999	0	0	0	0	;
	3	4	20000	0.75173	0.05	999	0	0	0	0	;
