<NUMBER OF ZONES> 8658
<NUMBER OF NODES> 1351
<FIRST THRU NODE> 1
<NUMBER OF LINKS> 3137
<END OF METADATA>
~  Init node  Term node  Capacity  Length  Free Flow Time  B  Power  Speed limit  Toll  Type  ;
	4	1	14784	0.10801	0.0030682	999	0	0	0	0	;
	3	2	14784	0.005739	0.00016302	999	0	0	0	0	;
	9	2	5280	0.07613	0.0030275	999	0	0	0	0	;
	1	3	10560	0.031878	0.0012677	999	0	0	0	0	;
	2	3	5280	0.005739	0.00022823	999	0	0	0	0	;
	6	4	8448	0.054928	0.0015603	999	0	0	0	0	;
	7	4	22176	0.2313	0.0065703	999	0	0	0	0	;
	1	5	7392	0.1433	0.0040706	999	0	0	0	0	;
	2	5	14784	0.15413	0.0043782	999	0	0	0	0	;
	37	5	16896	0.48035	0.013645	999	0	0	0	0	;
	5	6	29568	0.018521	0.0005261	999	0	0	0	0	;
	14	7	22176	0.38551	0.010951	999	0	0	0	0	;
	3	8	10560	0.074021	0.0029436	999	0	0	0	0	;
	8	9	5280	0.0066543	0.00026463	999	0	0	0	0	;
	11	9	15840	0.042194	0.0016779	999	0	0	0	0	;
	8	10	10560	0.043152	0.0017161	999	0	0	0	0	;
	11	10	5280	0.0082523	0.00032817	999	0	0	0	0	;
	12	10	5280	0.12706	0.0050531	999	0	0	0	0	;
	10	11	5280	0.0082523	0.00032817	999	0	0	0	0	;
	43	11	15840	0.55412	0.022036	999	0	0	0	0	;
	10	12	5280	0.12706	0.0050531	999	0	0	0	0	;
	13	12	5280	0.028454	0.0011315	999	0	0	0	0	;
	12	13	5280	0.028454	0.0011315	999	0	0	0	0	;
	17	13	5280	0.04887	0.0019435	999	0	0	0	0	;
	15	14	5280	0.018309	0.0007281	999	0	0	0	0	;
	16	14	22176	0.1393	0.003957	999	0	0	0	0	;
	6	15	29568	0.5646	0.016038	999	0	0	0	0	;
	14	15	5280	0.018309	0.0007281	999	0	0	0	0	;
	34	15	5280	0.25458	0.010124	999	0	0	0	0	;
	36	15	5280	0.21195	0.0084289	999	0	0	0	0	;
	39	15	5280	0.25072	0.0099705	999	0	0	0	0	;
	18	16	5280	0.017293	0.0006877	999	0	0	0	0	;
	22	16	5280	0.36075	0.014346	999	0	0	0	0	;
	24	16	22176	0.56077	0.015929	999	0	0	0	0	;
	13	17	5280	0.04887	0.0019435	999	0	0	0	0	;
	19	17	5280	0.038852	0.0015451	999	0	0	0	0	;
	21	17	5280	0.072454	0.0028814	999	0	0	0	0	;
	15	18	29568	0.1337	0.003798	999	0	0	0	0	;
	16	18	5280	0.017293	0.0006877	999	0	0	0	0	;
	20	18	5280	0.034155	0.0013583	999	0	0	0	0	;
	17	19	5280	0.038852	0.0015451	999	0	0	0	0	;
	23	19	5280	0.040459	0.001609	999	0	0	0	0	;
	18	20	5280	0.034155	0.0013583	999	0	0	0	0	;
	26	20	5280	0.077391	0.0030777	999	0	0	0	0	;
	37	21	5280	0.16706	0.0066438	999	0	0	0	0	;
	54	21	5280	0.24449	0.009723	999	0	0	0	0	;
	55	21	5280	0.25343	0.010078	999	0	0	0	0	;
	18	22	29568	0.36669	0.010416	999	0	0	0	0	;
	48	22	5280	0.18101	0.0071984	999	0	0	0	0	;
	19	23	5280	0.040459	0.001609	999	0	0	0	0	;
	41	23	5280	0.16775	0.006671	999	0	0	0	0	;
	27	24	5280	0.04545	0.0018075	999	0	0	0	0	;
	28	24	22176	0.3231	0.009178	999	0	0	0	0	;
	29	24	5280	0.27347	0.010875	999	0	0	0	0	;
	22	25	29568	0.20043	0.0056932	999	0	0	0	0	;
	24	25	5280	0.012556	0.00049934	999	0	0	0	0	;
	20	26	5280	0.077391	0.0030777	999	0	0	0	0	;
	36	26	5280	0.10556	0.0041979	999	0	0	0	0	;
	25	27	29568	0.043872	0.0012462	999	0	0	0	0	;
	52	27	5280	0.21295	0.0084685	999	0	0	0	0	;
	32	28	5280	0.62389	0.024811	999	0	0	0	0	;
	38	28	22176	0.88108	0.025028	999	0	0	0	0	;
	27	29	29568	0.2302	0.006539	999	0	0	0	0	;
	63	29	5280	0.18459	0.0073407	999	0	0	0	0	;
	28	30	5280	0.010706	0.00042574	999	0	0	0	0	;
	29	30	29568	0.04958	0.0014083	999	0	0	0	0	;
	9	31	5280	0.56544	0.022486	999	0	0	0	0	;
	30	32	29568	0.62464	0.017743	999	0	0	0	0	;
	35	32	5280	0.040438	0.0016081	999	0	0	0	0	;
	4	33	16896	0.47105	0.011708	999	0	0	0	0	;
	21	33	8448	0.12066	0.002999	999	0	0	0	0	;
	31	34	5280	0.051055	0.0020303	999	0	0	0	0	;
	50	34	5280	0.096546	0.0038394	999	0	0	0	0	;
	45	35	5280	0.21499	0.0085498	999	0	0	0	0	;
	49	35	5280	0.20665	0.008218	999	0	0	0	0	;
	26	36	5280	0.10556	0.0041979	999	0	0	0	0	;
	40	36	5280	0.040478	0.0016097	999	0	0	0	0	;
	143	37	8448	0.66415	0.016507	999	0	0	0	0	;
	206	37	8448	0.79025	0.019642	999	0	0	0	0	;
	44	38	5280	0.052115	0.0020725	999	0	0	0	0	;
	46	38	22176	0.55011	0.015626	999	0	0	0	0	;
	59	38	5280	0.40232	0.015999	999	0	0	0	0	;
	34	39	5280	0.085973	0.0034189	999	0	0	0	0	;
	62	39	5280	0.10061	0.004001	999	0	0	0	0	;
	60	40	5280	0.078051	0.0031039	999	0	0	0	0	;
	70	40	5280	0.32783	0.013037	999	0	0	0	0	;
	81	40	5280	0.32733	0.013017	999	0	0	0	0	;
	23	41	5280	0.16775	0.006671	999	0	0	0	0	;
	79	41	5280	0.19836	0.0078883	999	0	0	0	0	;
	32	42	29568	0.25398	0.0072144	999	0	0	0	0	;
	38	42	7392	0.012332	0.00035029	999	0	0	0	0	;
	31	43	5280	0.092814	0.003691	999	0	0	0	0	;
	50	43	15840	0.049794	0.0019802	999	0	0	0	0	;
	42	44	22176	0.05725	0.0016262	999	0	0	0	0	;
	57	44	5280	0.049745	0.0019782	999	0	0	0	0	;
	42	45	7392	0.0092894	0.00026387	999	0	0	0	0	;
	47	46	5280	0.013008	0.00051728	999	0	0	0	0	;
	68	46	22176	0.29992	0.0085195	999	0	0	0	0	;
	46	47	5280	0.013008	0.00051728	999	0	0	0	0	;
	53	47	5280	0.028765	0.0011439	999	0	0	0	0	;
	59	47	22176	0.15043	0.004273	999	0	0	0	0	;
	40	48	5280	0.41523	0.016513	999	0	0	0	0	;
	45	49	7392	0.022937	0.00065154	999	0	0	0	0	;
	82	49	5280	0.16966	0.006747	999	0	0	0	0	;
	56	50	5280	0.030314	0.0012055	999	0	0	0	0	;
	62	50	21120	0.087053	0.0034619	999	0	0	0	0	;
	25	51	5280	0.19524	0.0077642	999	0	0	0	0	;
	48	51	5280	0.11682	0.0046458	999	0	0	0	0	;
	51	52	5280	0.0072564	0.00028857	999	0	0	0	0	;
	61	52	15840	0.031089	0.0012363	999	0	0	0	0	;
	47	53	5280	0.028765	0.0011439	999	0	0	0	0	;
	66	53	5280	0.052322	0.0020807	999	0	0	0	0	;
	33	54	8448	0.12961	0.0032215	999	0	0	0	0	;
	54	55	8448	0.019109	0.00047496	999	0	0	0	0	;
	76	55	5280	0.1019	0.0040525	999	0	0	0	0	;
	90	56	5280	0.16147	0.0064214	999	0	0	0	0	;
	45	57	5280	0.055017	0.0021879	999	0	0	0	0	;
	49	57	5280	0.055469	0.0022059	999	0	0	0	0	;
	89	57	5280	0.1699	0.0067566	999	0	0	0	0	;
	44	58	22176	0.32147	0.0091316	999	0	0	0	0	;
	58	59	22176	0.029784	0.00084603	999	0	0	0	0	;
	64	59	5280	0.060472	0.0024048	999	0	0	0	0	;
	39	60	5280	0.1325	0.0052693	999	0	0	0	0	;
	69	61	15840	0.055144	0.002193	999	0	0	0	0	;
	109	62	5280	0.46079	0.018324	999	0	0	0	0	;
	52	63	5280	0.35056	0.013941	999	0	0	0	0	;
	83	63	5280	0.094537	0.0037595	999	0	0	0	0	;
	67	64	5280	0.0063249	0.00025153	999	0	0	0	0	;
	72	64	5280	0.049697	0.0019764	999	0	0	0	0	;
	30	65	5280	0.18655	0.0074187	999	0	0	0	0	;
	63	65	5280	0.050951	0.0020262	999	0	0	0	0	;
	53	66	5280	0.052322	0.0020807	999	0	0	0	0	;
	72	66	5280	0.023144	0.00092039	999	0	0	0	0	;
	58	67	5280	0.087597	0.0034835	999	0	0	0	0	;
	64	67	5280	0.0063249	0.00025153	999	0	0	0	0	;
	95	67	5280	0.16766	0.0066674	999	0	0	0	0	;
	88	68	22176	0.20096	0.0057084	999	0	0	0	0	;
	51	69	5280	0.082033	0.0032623	999	0	0	0	0	;
	75	69	31680	0.03314	0.0013179	999	0	0	0	0	;
	74	70	5280	0.095741	0.0038074	999	0	0	0	0	;
	47	71	22176	0.29915	0.0084975	999	0	0	0	0	;
	68	71	5280	0.01398	0.00055596	999	0	0	0	0	;
	66	72	5280	0.023144	0.00092039	999	0	0	0	0	;
	67	72	5280	0.049952	0.0019865	999	0	0	0	0	;
	99	72	5280	0.29518	0.011738	999	0	0	0	0	;
	70	73	5280	0.013406	0.00053313	999	0	0	0	0	;
	75	74	5280	0.052239	0.0020774	999	0	0	0	0	;
	69	75	31680	0.03314	0.0013179	999	0	0	0	0	;
	77	75	5280	0.086438	0.0034375	999	0	0	0	0	;
	84	75	31680	0.073654	0.002929	999	0	0	0	0	;
	55	76	5280	0.1019	0.0040525	999	0	0	0	0	;
	93	76	5280	0.10593	0.0042126	999	0	0	0	0	;
	80	77	5280	0.043095	0.0017138	999	0	0	0	0	;
	92	77	5280	0.071054	0.0028257	999	0	0	0	0	;
	43	78	5280	0.14185	0.0056411	999	0	0	0	0	;
	56	78	5280	0.090146	0.0035849	999	0	0	0	0	;
	41	79	5280	0.19836	0.0078883	999	0	0	0	0	;
	93	79	5280	0.091852	0.0036528	999	0	0	0	0	;
	96	79	5280	0.13748	0.0054671	999	0	0	0	0	;
	83	80	5280	0.29275	0.011642	999	0	0	0	0	;
	73	81	5280	0.046906	0.0018654	999	0	0	0	0	;
	49	82	5280	0.16966	0.006747	999	0	0	0	0	;
	87	82	5280	0.014252	0.00056676	999	0	0	0	0	;
	65	83	5280	0.10742	0.0042717	999	0	0	0	0	;
	105	83	5280	0.13223	0.0052586	999	0	0	0	0	;
	127	83	5280	0.59594	0.023699	999	0	0	0	0	;
	74	84	5280	0.059108	0.0023506	999	0	0	0	0	;
	75	84	31680	0.073654	0.002929	999	0	0	0	0	;
	85	84	5280	0.083146	0.0033066	999	0	0	0	0	;
	94	84	31680	0.048037	0.0019103	999	0	0	0	0	;
	73	85	5280	0.065104	0.0025891	999	0	0	0	0	;
	86	85	5280	0.054293	0.0021591	999	0	0	0	0	;
	60	86	5280	0.33085	0.013157	999	0	0	0	0	;
	81	86	5280	0.028909	0.0011496	999	0	0	0	0	;
	82	87	5280	0.014252	0.00056676	999	0	0	0	0	;
	89	87	5280	0.05734	0.0022803	999	0	0	0	0	;
	107	87	5280	0.15202	0.0060457	999	0	0	0	0	;
	91	88	5280	0.013776	0.00054783	999	0	0	0	0	;
	124	88	22176	0.39924	0.011341	999	0	0	0	0	;
	123	89	5280	0.38453	0.015292	999	0	0	0	0	;
	97	90	5280	0.061763	0.0024562	999	0	0	0	0	;
	71	91	29568	0.20059	0.0056978	999	0	0	0	0	;
	88	91	5280	0.013776	0.00054783	999	0	0	0	0	;
	108	91	5280	0.13431	0.0053414	999	0	0	0	0	;
	84	92	5280	0.12701	0.0050511	999	0	0	0	0	;
	103	92	5280	0.097813	0.0038898	999	0	0	0	0	;
	76	93	5280	0.10593	0.0042126	999	0	0	0	0	;
	79	93	5280	0.091852	0.0036528	999	0	0	0	0	;
	98	93	5280	0.06086	0.0024203	999	0	0	0	0	;
	84	94	31680	0.048037	0.0019103	999	0	0	0	0	;
	85	94	5280	0.059882	0.0023814	999	0	0	0	0	;
	118	94	31680	0.19885	0.0079079	999	0	0	0	0	;
	57	95	5280	0.38537	0.015325	999	0	0	0	0	;
	67	95	5280	0.16766	0.0066674	999	0	0	0	0	;
	123	95	5280	0.1691	0.0067247	999	0	0	0	0	;
	79	96	5280	0.13748	0.0054671	999	0	0	0	0	;
	111	96	5280	0.12733	0.0050636	999	0	0	0	0	;
	101	97	5280	0.042443	0.0016878	999	0	0	0	0	;
	93	98	5280	0.06086	0.0024203	999	0	0	0	0	;
	144	98	5280	0.24585	0.0097769	999	0	0	0	0	;
	71	99	5280	0.16854	0.0067025	999	0	0	0	0	;
	117	99	5280	0.20053	0.0079745	999	0	0	0	0	;
	94	100	5280	0.083486	0.0033201	999	0	0	0	0	;
	103	100	5280	0.0764	0.0030383	999	0	0	0	0	;
	97	101	5280	0.042443	0.0016878	999	0	0	0	0	;
	130	101	5280	0.32824	0.013054	999	0	0	0	0	;
	78	102	5280	0.17793	0.0070757	999	0	0	0	0	;
	120	102	5280	0.11101	0.0044148	999	0	0	0	0	;
	100	103	5280	0.0764	0.0030383	999	0	0	0	0	;
	132	103	5280	0.20345	0.0080907	999	0	0	0	0	;
	150	103	5280	0.19595	0.0077926	999	0	0	0	0	;
	92	104	5280	0.33562	0.013347	999	0	0	0	0	;
	104	105	5280	0.0089603	0.00035633	999	0	0	0	0	;
	113	105	10560	0.024186	0.00096183	999	0	0	0	0	;
	65	106	5280	0.72237	0.028727	999	0	0	0	0	;
	112	106	5280	0.049378	0.0019637	999	0	0	0	0	;
	87	107	5280	0.15202	0.0060457	999	0	0	0	0	;
	106	107	5280	0.028346	0.0011273	999	0	0	0	0	;
	110	107	5280	0.0050725	0.00020172	999	0	0	0	0	;
	91	108	5280	0.13431	0.0053414	999	0	0	0	0	;
	117	108	5280	0.032922	0.0013092	999	0	0	0	0	;
	86	109	5280	0.16421	0.0065305	999	0	0	0	0	;
	118	109	5280	0.063389	0.0025208	999	0	0	0	0	;
	106	110	5280	0.027815	0.0011062	999	0	0	0	0	;
	107	110	5280	0.0050725	0.00020172	999	0	0	0	0	;
	154	110	5280	0.17172	0.0068291	999	0	0	0	0	;
	96	111	5280	0.12733	0.0050636	999	0	0	0	0	;
	120	111	5280	0.063288	0.0025168	999	0	0	0	0	;
	127	112	5280	0.1666	0.0066252	999	0	0	0	0	;
	149	113	5280	0.15916	0.0063294	999	0	0	0	0	;
	33	114	25344	0.5001	0.01243	999	0	0	0	0	;
	110	115	5280	0.028722	0.0011422	999	0	0	0	0	;
	91	116	29568	0.29836	0.0084752	999	0	0	0	0	;
	163	116	5280	0.16957	0.0067433	999	0	0	0	0	;
	108	117	5280	0.032922	0.0013092	999	0	0	0	0	;
	119	117	5280	0.021549	0.00085696	999	0	0	0	0	;
	128	117	5280	0.10287	0.0040908	999	0	0	0	0	;
	94	118	31680	0.19885	0.0079079	999	0	0	0	0	;
	136	118	5280	0.11847	0.0047112	999	0	0	0	0	;
	138	118	31680	0.098159	0.0039036	999	0	0	0	0	;
	117	119	5280	0.021549	0.00085696	999	0	0	0	0	;
	164	119	31680	0.15226	0.0060549	999	0	0	0	0	;
	102	120	5280	0.11101	0.0044148	999	0	0	0	0	;
	111	120	5280	0.063288	0.0025168	999	0	0	0	0	;
	121	120	5280	0.0096876	0.00038525	999	0	0	0	0	;
	145	120	8448	0.12954	0.0032196	999	0	0	0	0	;
	120	121	5280	0.0096876	0.00038525	999	0	0	0	0	;
	125	121	5280	0.036102	0.0014357	999	0	0	0	0	;
	115	122	5280	0.096742	0.0038472	999	0	0	0	0	;
	95	123	5280	0.1691	0.0067247	999	0	0	0	0	;
	170	123	5280	0.1688	0.0067127	999	0	0	0	0	;
	180	123	5280	0.349	0.013879	999	0	0	0	0	;
	129	124	5280	0.015738	0.00062588	999	0	0	0	0	;
	168	124	29568	0.2088	0.0059312	999	0	0	0	0	;
	121	125	5280	0.036102	0.0014357	999	0	0	0	0	;
	126	125	5280	0.01081	0.00042989	999	0	0	0	0	;
	125	126	5280	0.01081	0.00042989	999	0	0	0	0	;
	133	126	5280	0.027902	0.0011096	999	0	0	0	0	;
	160	126	5280	0.1324	0.0052654	999	0	0	0	0	;
	161	126	8448	0.15154	0.0060263	999	0	0	0	0	;
	112	127	5280	0.1666	0.0066252	999	0	0	0	0	;
	146	127	5280	0.14306	0.0056893	999	0	0	0	0	;
	154	127	5280	0.15683	0.0062366	999	0	0	0	0	;
	117	128	5280	0.10287	0.0040908	999	0	0	0	0	;
	134	128	5280	0.033255	0.0013225	999	0	0	0	0	;
	116	129	29568	0.10126	0.0028765	999	0	0	0	0	;
	124	129	5280	0.015738	0.00062588	999	0	0	0	0	;
	141	129	5280	0.036375	0.0014465	999	0	0	0	0	;
	109	130	5280	0.09503	0.0037791	999	0	0	0	0	;
	138	130	5280	0.042131	0.0016755	999	0	0	0	0	;
	95	131	5280	0.34781	0.013831	999	0	0	0	0	;
	99	131	5280	0.1724	0.006856	999	0	0	0	0	;
	103	132	5280	0.20345	0.0080907	999	0	0	0	0	;
	147	132	5280	0.092097	0.0036625	999	0	0	0	0	;
	126	133	5280	0.027902	0.0011096	999	0	0	0	0	;
	140	133	5280	0.039898	0.0015866	999	0	0	0	0	;
	128	134	5280	0.033255	0.0013225	999	0	0	0	0	;
	137	134	5280	0.014748	0.00058649	999	0	0	0	0	;
	131	135	5280	0.018133	0.00072109	999	0	0	0	0	;
	100	136	5280	0.19603	0.0077956	999	0	0	0	0	;
	150	136	5280	0.078663	0.0031283	999	0	0	0	0	;
	134	137	5280	0.014748	0.00058649	999	0	0	0	0	;
	151	137	5280	0.097856	0.0038915	999	0	0	0	0	;
	189	137	5280	0.17277	0.0068708	999	0	0	0	0	;
	118	138	31680	0.098159	0.0039036	999	0	0	0	0	;
	148	138	31680	0.041805	0.0016625	999	0	0	0	0	;
	165	138	5280	0.13634	0.0054218	999	0	0	0	0	;
	122	139	5280	0.09179	0.0036503	999	0	0	0	0	;
	133	140	5280	0.039898	0.0015866	999	0	0	0	0	;
	152	140	5280	0.066276	0.0026357	999	0	0	0	0	;
	129	141	5280	0.036375	0.0014465	999	0	0	0	0	;
	176	141	5280	0.12794	0.0050878	999	0	0	0	0	;
	101	142	5280	0.32747	0.013023	999	0	0	0	0	;
	130	142	5280	0.043529	0.0017311	999	0	0	0	0	;
	125	143	5280	0.078833	0.003135	999	0	0	0	0	;
	98	144	5280	0.24585	0.0097769	999	0	0	0	0	;
	120	144	5280	0.13777	0.005479	999	0	0	0	0	;
	158	144	5280	0.045158	0.0017959	999	0	0	0	0	;
	114	145	8448	0.16817	0.0041799	999	0	0	0	0	;
	127	146	5280	0.14306	0.0056893	999	0	0	0	0	;
	156	146	5280	0.074974	0.0029816	999	0	0	0	0	;
	104	147	5280	0.18069	0.0071858	999	0	0	0	0	;
	132	147	5280	0.092097	0.0036625	999	0	0	0	0	;
	149	147	5280	0.009529	0.00037895	999	0	0	0	0	;
	138	148	31680	0.041805	0.0016625	999	0	0	0	0	;
	142	148	5280	0.032331	0.0012857	999	0	0	0	0	;
	169	148	31680	0.095533	0.0037992	999	0	0	0	0	;
	147	149	5280	0.009529	0.00037895	999	0	0	0	0	;
	210	149	5280	0.19646	0.0078128	999	0	0	0	0	;
	179	150	5280	0.10111	0.0040209	999	0	0	0	0	;
	208	150	5280	0.29647	0.01179	999	0	0	0	0	;
	137	151	5280	0.097856	0.0038915	999	0	0	0	0	;
	163	151	5280	0.048238	0.0019183	999	0	0	0	0	;
	140	152	5280	0.066276	0.0026357	999	0	0	0	0	;
	177	152	5280	0.12783	0.0050834	999	0	0	0	0	;
	290	152	5280	0.37977	0.015103	999	0	0	0	0	;
	135	153	5280	0.053225	0.0021166	999	0	0	0	0	;
	157	153	5280	0.030141	0.0011986	999	0	0	0	0	;
	110	154	5280	0.17172	0.0068291	999	0	0	0	0	;
	207	154	5280	0.17149	0.0068197	999	0	0	0	0	;
	222	154	5280	0.44017	0.017505	999	0	0	0	0	;
	139	155	5280	0.093923	0.0037351	999	0	0	0	0	;
	105	156	5280	0.40737	0.0162	999	0	0	0	0	;
	113	156	5280	0.40533	0.016119	999	0	0	0	0	;
	146	156	5280	0.074974	0.0029816	999	0	0	0	0	;
	159	157	5280	0.0048795	0.00019405	999	0	0	0	0	;
	183	157	16896	0.17654	0.0043878	999	0	0	0	0	;
	212	157	8448	0.25392	0.0063112	999	0	0	0	0	;
	143	158	5280	0.075468	0.0030012	999	0	0	0	0	;
	144	158	5280	0.045158	0.0017959	999	0	0	0	0	;
	166	158	5280	0.029285	0.0011646	999	0	0	0	0	;
	153	159	5280	0.030134	0.0011984	999	0	0	0	0	;
	184	159	5280	0.10698	0.0042543	999	0	0	0	0	;
	191	159	5280	0.10092	0.0040132	999	0	0	0	0	;
	162	160	5280	0.0064378	0.00025602	999	0	0	0	0	;
	206	161	8448	0.13508	0.0033575	999	0	0	0	0	;
	160	162	5280	0.0064378	0.00025602	999	0	0	0	0	;
	166	162	5280	0.019971	0.00079421	999	0	0	0	0	;
	186	162	5280	0.077009	0.0030625	999	0	0	0	0	;
	116	163	5280	0.16957	0.0067433	999	0	0	0	0	;
	151	163	5280	0.048238	0.0019183	999	0	0	0	0	;
	176	163	5280	0.10355	0.0041178	999	0	0	0	0	;
	119	164	31680	0.15226	0.0060549	999	0	0	0	0	;
	131	164	5280	0.19918	0.0079209	999	0	0	0	0	;
	157	164	5280	0.16344	0.0064996	999	0	0	0	0	;
	175	164	31680	0.041588	0.0016539	999	0	0	0	0	;
	136	165	5280	0.10098	0.0040158	999	0	0	0	0	;
	179	165	5280	0.084203	0.0033486	999	0	0	0	0	;
	158	166	5280	0.029285	0.0011646	999	0	0	0	0	;
	162	166	5280	0.019971	0.00079421	999	0	0	0	0	;
	186	166	5280	0.068188	0.0027117	999	0	0	0	0	;
	155	167	5280	0.1006	0.0040005	999	0	0	0	0	;
	202	168	5280	0.14801	0.0058859	999	0	0	0	0	;
	204	168	29568	0.19585	0.0055632	999	0	0	0	0	;
	142	169	5280	0.0957	0.0038058	999	0	0	0	0	;
	148	169	31680	0.095533	0.0037992	999	0	0	0	0	;
	190	169	31680	0.048476	0.0019278	999	0	0	0	0	;
	123	170	5280	0.1688	0.0067127	999	0	0	0	0	;
	167	170	5280	0.028379	0.0011286	999	0	0	0	0	;
	174	170	5280	0.0052721	0.00020966	999	0	0	0	0	;
	148	171	5280	0.14421	0.0057351	999	0	0	0	0	;
	165	171	5280	0.033549	0.0013342	999	0	0	0	0	;
	177	172	5280	0.020385	0.00081065	999	0	0	0	0	;
	181	172	5280	0.033253	0.0013224	999	0	0	0	0	;
	129	173	29568	0.2085	0.0059225	999	0	0	0	0	;
	168	173	5280	0.013164	0.00052349	999	0	0	0	0	;
	203	173	5280	0.13252	0.0052699	999	0	0	0	0	;
	167	174	5280	0.027896	0.0011094	999	0	0	0	0	;
	170	174	5280	0.0052721	0.00020966	999	0	0	0	0	;
	219	174	5280	0.14539	0.0057819	999	0	0	0	0	;
	164	175	31680	0.041588	0.0016539	999	0	0	0	0	;
	182	175	31680	0.023173	0.00092152	999	0	0	0	0	;
	141	176	5280	0.12794	0.0050878	999	0	0	0	0	;
	198	176	5280	0.10275	0.0040861	999	0	0	0	0	;
	201	176	5280	0.066858	0.0026588	999	0	0	0	0	;
	152	177	5280	0.12783	0.0050834	999	0	0	0	0	;
	172	177	5280	0.020385	0.00081065	999	0	0	0	0	;
	128	178	5280	0.17341	0.0068962	999	0	0	0	0	;
	164	178	5280	0.10238	0.0040714	999	0	0	0	0	;
	187	179	5280	0.042019	0.001671	999	0	0	0	0	;
	192	179	5280	0.032636	0.0012979	999	0	0	0	0	;
	135	180	5280	0.15237	0.0060594	999	0	0	0	0	;
	153	180	5280	0.10418	0.004143	999	0	0	0	0	;
	184	180	5280	0.013248	0.00052683	999	0	0	0	0	;
	296	180	5280	0.34463	0.013705	999	0	0	0	0	;
	185	181	5280	0.0089886	0.00035746	999	0	0	0	0	;
	196	181	5280	0.040814	0.0016231	999	0	0	0	0	;
	218	181	5280	0.20101	0.0079936	999	0	0	0	0	;
	175	182	31680	0.023173	0.00092152	999	0	0	0	0	;
	194	182	31680	0.027511	0.0010941	999	0	0	0	0	;
	232	183	16896	0.16955	0.0042142	999	0	0	0	0	;
	191	184	5280	0.034426	0.0013691	999	0	0	0	0	;
	172	185	5280	0.032653	0.0012985	999	0	0	0	0	;
	181	185	5280	0.0089886	0.00035746	999	0	0	0	0	;
	188	185	5280	0.015772	0.0006272	999	0	0	0	0	;
	166	186	5280	0.068188	0.0027117	999	0	0	0	0	;
	304	186	5280	0.31567	0.012553	999	0	0	0	0	;
	197	187	5280	0.02239	0.00089038	999	0	0	0	0	;
	185	188	5280	0.015772	0.0006272	999	0	0	0	0	;
	199	188	5280	0.02572	0.0010228	999	0	0	0	0	;
	178	189	5280	0.048821	0.0019415	999	0	0	0	0	;
	245	189	5280	0.17171	0.0068285	999	0	0	0	0	;
	169	190	31680	0.048476	0.0019278	999	0	0	0	0	;
	195	190	31680	0.018009	0.00071617	999	0	0	0	0	;
	193	191	5280	0.0056437	0.00022444	999	0	0	0	0	;
	216	191	5280	0.15102	0.0060059	999	0	0	0	0	;
	171	192	5280	0.086131	0.0034252	999	0	0	0	0	;
	303	193	5280	0.33893	0.013478	999	0	0	0	0	;
	182	194	31680	0.027511	0.0010941	999	0	0	0	0	;
	200	194	21120	0.036787	0.0014629	999	0	0	0	0	;
	216	194	31680	0.07777	0.0030928	999	0	0	0	0	;
	190	195	31680	0.018009	0.00071617	999	0	0	0	0	;
	205	195	31680	0.031496	0.0012525	999	0	0	0	0	;
	185	196	5280	0.041481	0.0016496	999	0	0	0	0	;
	255	196	5280	0.19679	0.007826	999	0	0	0	0	;
	281	196	5280	0.24352	0.0096842	999	0	0	0	0	;
	187	197	5280	0.02239	0.00089038	999	0	0	0	0	;
	192	197	5280	0.044643	0.0017754	999	0	0	0	0	;
	259	197	5280	0.18953	0.0075374	999	0	0	0	0	;
	203	198	5280	0.049875	0.0019834	999	0	0	0	0	;
	188	199	5280	0.02572	0.0010228	999	0	0	0	0	;
	284	199	5280	0.24169	0.0096114	999	0	0	0	0	;
	194	200	21120	0.036787	0.0014629	999	0	0	0	0	;
	212	200	15840	0.064617	0.0025697	999	0	0	0	0	;
	176	201	5280	0.066858	0.0026588	999	0	0	0	0	;
	227	201	5280	0.10554	0.004197	999	0	0	0	0	;
	173	202	29568	0.14738	0.0041864	999	0	0	0	0	;
	241	202	5280	0.1242	0.0049392	999	0	0	0	0	;
	198	203	5280	0.049875	0.0019834	999	0	0	0	0	;
	214	203	5280	0.050124	0.0019933	999	0	0	0	0	;
	260	203	5280	0.17229	0.0068517	999	0	0	0	0	;
	242	204	29568	0.20316	0.0057708	999	0	0	0	0	;
	195	205	31680	0.031496	0.0012525	999	0	0	0	0	;
	218	205	31680	0.047671	0.0018958	999	0	0	0	0	;
	519	206	25344	0.87117	0.021653	999	0	0	0	0	;
	154	207	5280	0.17149	0.0068197	999	0	0	0	0	;
	156	207	5280	0.29318	0.011659	999	0	0	0	0	;
	269	207	5280	0.19467	0.0077414	999	0	0	0	0	;
	147	208	5280	0.19759	0.0078578	999	0	0	0	0	;
	210	208	5280	0.0098108	0.00039015	999	0	0	0	0	;
	223	209	16896	0.075594	0.0018789	999	0	0	0	0	;
	156	210	5280	0.58553	0.023285	999	0	0	0	0	;
	217	210	21120	0.033383	0.0013276	999	0	0	0	0	;
	269	210	5280	0.74675	0.029697	999	0	0	0	0	;
	331	210	5280	0.71913	0.028598	999	0	0	0	0	;
	202	211	29568	0.049268	0.0013995	999	0	0	0	0	;
	204	211	5280	0.013006	0.00051724	999	0	0	0	0	;
	178	212	5280	0.093822	0.0037311	999	0	0	0	0	;
	232	212	8448	0.083368	0.0020721	999	0	0	0	0	;
	196	213	5280	0.10988	0.0043696	999	0	0	0	0	;
	173	214	5280	0.12311	0.0048959	999	0	0	0	0	;
	203	214	5280	0.050124	0.0019933	999	0	0	0	0	;
	225	214	5280	0.099406	0.0039531	999	0	0	0	0	;
	200	215	5280	0.066765	0.0026551	999	0	0	0	0	;
	212	215	5280	0.015737	0.00062581	999	0	0	0	0	;
	194	216	31680	0.07777	0.0030928	999	0	0	0	0	;
	230	216	21120	0.10139	0.0040321	999	0	0	0	0	;
	272	216	31680	0.17322	0.0068884	999	0	0	0	0	;
	210	217	21120	0.033383	0.0013276	999	0	0	0	0	;
	234	217	15840	0.046063	0.0018318	999	0	0	0	0	;
	205	218	31680	0.047671	0.0018958	999	0	0	0	0	;
	213	218	5280	0.056009	0.0022273	999	0	0	0	0	;
	221	218	5280	0.030945	0.0012306	999	0	0	0	0	;
	228	218	5280	0.036661	0.0014579	999	0	0	0	0	;
	174	219	5280	0.14539	0.0057819	999	0	0	0	0	;
	222	219	5280	0.026092	0.0010376	999	0	0	0	0	;
	189	220	5280	0.19787	0.007869	999	0	0	0	0	;
	253	220	5280	0.092168	0.0036653	999	0	0	0	0	;
	218	221	5280	0.030945	0.0012306	999	0	0	0	0	;
	226	221	5280	0.043236	0.0017194	999	0	0	0	0	;
	228	221	5280	0.048091	0.0019125	999	0	0	0	0	;
	219	222	5280	0.026092	0.0010376	999	0	0	0	0	;
	224	222	5280	0.0042145	0.0001676	999	0	0	0	0	;
	229	222	5280	0.026509	0.0010542	999	0	0	0	0	;
	209	223	16896	0.075594	0.0018789	999	0	0	0	0	;
	235	223	16896	0.020322	0.00050511	999	0	0	0	0	;
	222	224	5280	0.0042145	0.0001676	999	0	0	0	0	;
	229	224	5280	0.026838	0.0010673	999	0	0	0	0	;
	237	224	5280	0.019728	0.00078453	999	0	0	0	0	;
	214	225	5280	0.099406	0.0039531	999	0	0	0	0	;
	233	225	5280	0.01865	0.00074166	999	0	0	0	0	;
	221	226	5280	0.043236	0.0017194	999	0	0	0	0	;
	247	226	5280	0.093261	0.0037088	999	0	0	0	0	;
	201	227	5280	0.10554	0.004197	999	0	0	0	0	;
	220	227	5280	0.051231	0.0020374	999	0	0	0	0	;
	263	227	5280	0.092786	0.0036899	999	0	0	0	0	;
	238	228	5280	0.036748	0.0014614	999	0	0	0	0	;
	244	228	5280	0.030152	0.0011991	999	0	0	0	0	;
	266	229	5280	0.17332	0.0068927	999	0	0	0	0	;
	215	230	5280	0.060589	0.0024095	999	0	0	0	0	;
	240	230	21120	0.029277	0.0011643	999	0	0	0	0	;
	197	231	5280	0.27057	0.01076	999	0	0	0	0	;
	208	231	15840	0.078567	0.0031245	999	0	0	0	0	;
	239	232	16896	0.051964	0.0012916	999	0	0	0	0	;
	225	233	5280	0.01865	0.00074166	999	0	0	0	0	;
	236	233	5280	0.012373	0.00049205	999	0	0	0	0	;
	217	234	15840	0.046063	0.0018318	999	0	0	0	0	;
	231	234	5280	0.0096646	0.00038434	999	0	0	0	0	;
	286	234	15840	0.15341	0.0061006	999	0	0	0	0	;
	223	235	16896	0.020322	0.00050511	999	0	0	0	0	;
	239	235	16896	0.011976	0.00029766	999	0	0	0	0	;
	233	236	5280	0.012373	0.00049205	999	0	0	0	0	;
	241	236	5280	0.017306	0.00068823	999	0	0	0	0	;
	224	237	5280	0.019728	0.00078453	999	0	0	0	0	;
	282	237	5280	0.1476	0.0058696	999	0	0	0	0	;
	218	238	5280	0.067694	0.002692	999	0	0	0	0	;
	251	238	5280	0.084696	0.0033682	999	0	0	0	0	;
	235	239	16896	0.011976	0.00029766	999	0	0	0	0	;
	243	239	16896	0.025859	0.00064272	999	0	0	0	0	;
	245	240	31680	0.019645	0.00078123	999	0	0	0	0	;
	236	241	5280	0.017306	0.00068823	999	0	0	0	0	;
	250	241	5280	0.049404	0.0019647	999	0	0	0	0	;
	300	241	5280	0.17159	0.0068236	999	0	0	0	0	;
	256	242	25344	0.18408	0.0052289	999	0	0	0	0	;
	159	243	16896	0.36681	0.009117	999	0	0	0	0	;
	215	243	8448	0.11173	0.0027771	999	0	0	0	0	;
	240	243	8448	0.086791	0.0021572	999	0	0	0	0	;
	249	244	5280	0.046374	0.0018442	999	0	0	0	0	;
	277	245	21120	0.20176	0.0080236	999	0	0	0	0	;
	301	245	5280	0.17149	0.0068198	999	0	0	0	0	;
	211	246	29568	0.20308	0.0057685	999	0	0	0	0	;
	242	246	5280	0.013023	0.00051789	999	0	0	0	0	;
	283	246	15840	0.12396	0.0049296	999	0	0	0	0	;
	171	247	5280	0.21667	0.0086167	999	0	0	0	0	;
	226	247	5280	0.093261	0.0037088	999	0	0	0	0	;
	258	247	5280	0.11917	0.0047389	999	0	0	0	0	;
	246	248	29568	0.0055532	0.00015774	999	0	0	0	0	;
	244	249	5280	0.046374	0.0018442	999	0	0	0	0	;
	265	249	5280	0.12379	0.0049229	999	0	0	0	0	;
	211	250	15840	0.12275	0.0048815	999	0	0	0	0	;
	241	250	5280	0.049404	0.0019647	999	0	0	0	0	;
	252	250	5280	0.023048	0.00091658	999	0	0	0	0	;
	238	251	5280	0.084696	0.0033682	999	0	0	0	0	;
	250	252	5280	0.023048	0.00091658	999	0	0	0	0	;
	254	252	5280	0.011521	0.00045817	999	0	0	0	0	;
	209	253	5280	0.13682	0.005441	999	0	0	0	0	;
	277	253	5280	0.079538	0.0031631	999	0	0	0	0	;
	252	254	5280	0.011521	0.00045817	999	0	0	0	0	;
	257	254	5280	0.016603	0.00066026	999	0	0	0	0	;
	244	255	5280	0.038452	0.0015291	999	0	0	0	0	;
	267	255	5280	0.02651	0.0010542	999	0	0	0	0	;
	441	256	8448	1.0773	0.026777	999	0	0	0	0	;
	464	256	25344	1.2058	0.029969	999	0	0	0	0	;
	254	257	5280	0.016603	0.00066026	999	0	0	0	0	;
	268	257	5280	0.047954	0.001907	999	0	0	0	0	;
	247	258	5280	0.11917	0.0047389	999	0	0	0	0	;
	259	258	5280	0.017424	0.00069293	999	0	0	0	0	;
	197	259	5280	0.18953	0.0075374	999	0	0	0	0	;
	262	259	5280	0.0087314	0.00034723	999	0	0	0	0	;
	285	259	5280	0.27109	0.01078	999	0	0	0	0	;
	227	260	5280	0.15282	0.0060773	999	0	0	0	0	;
	317	260	5280	0.17158	0.0068233	999	0	0	0	0	;
	258	261	5280	0.013487	0.00053636	999	0	0	0	0	;
	259	261	5280	0.0084126	0.00033455	999	0	0	0	0	;
	261	262	5280	0.0061402	0.00024418	999	0	0	0	0	;
	280	262	5280	0.062264	0.0024761	999	0	0	0	0	;
	227	263	5280	0.092786	0.0036899	999	0	0	0	0	;
	253	263	5280	0.048703	0.0019368	999	0	0	0	0	;
	288	263	5280	0.078853	0.0031358	999	0	0	0	0	;
	248	264	7392	0.14531	0.0041277	999	0	0	0	0	;
	302	264	5280	0.11465	0.0045593	999	0	0	0	0	;
	247	265	5280	0.056356	0.0022412	999	0	0	0	0	;
	249	265	5280	0.12379	0.0049229	999	0	0	0	0	;
	274	265	5280	0.029232	0.0011625	999	0	0	0	0	;
	279	265	5280	0.1313	0.0052215	999	0	0	0	0	;
	296	266	5280	0.14694	0.0058434	999	0	0	0	0	;
	255	267	5280	0.02651	0.0010542	999	0	0	0	0	;
	273	267	5280	0.02277	0.00090549	999	0	0	0	0	;
	257	268	5280	0.047954	0.001907	999	0	0	0	0	;
	271	268	5280	0.026398	0.0010498	999	0	0	0	0	;
	207	269	5280	0.19467	0.0077414	999	0	0	0	0	;
	309	269	5280	0.11579	0.0046048	999	0	0	0	0	;
	353	269	5280	0.43993	0.017495	999	0	0	0	0	;
	214	270	5280	0.17186	0.0068345	999	0	0	0	0	;
	260	270	5280	0.05028	0.0019995	999	0	0	0	0	;
	268	271	5280	0.026398	0.0010498	999	0	0	0	0	;
	275	271	5280	0.023945	0.00095226	999	0	0	0	0	;
	174	272	5280	0.54771	0.021781	999	0	0	0	0	;
	216	272	31680	0.17322	0.0068884	999	0	0	0	0	;
	334	272	31680	0.17158	0.0068234	999	0	0	0	0	;
	267	273	5280	0.02277	0.00090549	999	0	0	0	0	;
	287	273	5280	0.043268	0.0017207	999	0	0	0	0	;
	265	274	5280	0.029232	0.0011625	999	0	0	0	0	;
	276	274	5280	0.012471	0.00049596	999	0	0	0	0	;
	271	275	5280	0.023945	0.00095226	999	0	0	0	0	;
	278	275	5280	0.029064	0.0011558	999	0	0	0	0	;
	338	275	5280	0.17127	0.006811	999	0	0	0	0	;
	274	276	5280	0.012471	0.00049596	999	0	0	0	0	;
	314	276	5280	0.095056	0.0037802	999	0	0	0	0	;
	288	277	21120	0.047821	0.0019017	999	0	0	0	0	;
	275	278	5280	0.029064	0.0011558	999	0	0	0	0	;
	283	278	5280	0.022578	0.00089787	999	0	0	0	0	;
	261	279	5280	0.063086	0.0025088	999	0	0	0	0	;
	265	279	5280	0.1313	0.0052215	999	0	0	0	0	;
	280	279	5280	0.011027	0.00043852	999	0	0	0	0	;
	279	280	5280	0.011027	0.00043852	999	0	0	0	0	;
	322	280	5280	0.26357	0.010482	999	0	0	0	0	;
	336	280	5280	0.13421	0.0053374	999	0	0	0	0	;
	287	281	5280	0.053804	0.0021397	999	0	0	0	0	;
	289	281	5280	0.01252	0.00049789	999	0	0	0	0	;
	207	282	5280	0.43964	0.017484	999	0	0	0	0	;
	237	282	5280	0.1476	0.0058696	999	0	0	0	0	;
	353	282	5280	0.19376	0.0077052	999	0	0	0	0	;
	246	283	15840	0.12396	0.0049296	999	0	0	0	0	;
	278	283	5280	0.022578	0.00089787	999	0	0	0	0	;
	293	283	5280	0.029671	0.00118	999	0	0	0	0	;
	199	284	5280	0.24169	0.0096114	999	0	0	0	0	;
	281	284	5280	0.036654	0.0014577	999	0	0	0	0	;
	295	284	5280	0.013589	0.00054042	999	0	0	0	0	;
	231	285	15840	0.15607	0.0062064	999	0	0	0	0	;
	286	285	5280	0.0096038	0.00038192	999	0	0	0	0	;
	234	286	15840	0.15341	0.0061006	999	0	0	0	0	;
	294	286	15840	0.0076063	0.00030249	999	0	0	0	0	;
	311	286	5280	0.20752	0.0082527	999	0	0	0	0	;
	273	287	5280	0.043268	0.0017207	999	0	0	0	0	;
	297	287	5280	0.014796	0.00058841	999	0	0	0	0	;
	314	287	5280	0.17091	0.0067967	999	0	0	0	0	;
	263	288	5280	0.078853	0.0031358	999	0	0	0	0	;
	317	288	5280	0.15287	0.0060791	999	0	0	0	0	;
	350	288	5280	0.17139	0.0068157	999	0	0	0	0	;
	295	289	5280	0.036435	0.0014489	999	0	0	0	0	;
	152	290	5280	0.37977	0.015103	999	0	0	0	0	;
	284	290	5280	0.097248	0.0038674	999	0	0	0	0	;
	299	290	5280	0.015607	0.00062066	999	0	0	0	0	;
	262	291	5280	0.26781	0.01065	999	0	0	0	0	;
	285	291	15840	0.0075621	0.00030073	999	0	0	0	0	;
	230	292	5280	0.17309	0.0068833	999	0	0	0	0	;
	272	292	15840	0.10176	0.0040466	999	0	0	0	0	;
	283	293	5280	0.029671	0.00118	999	0	0	0	0	;
	298	293	5280	0.017888	0.00071136	999	0	0	0	0	;
	286	294	15840	0.0076063	0.00030249	999	0	0	0	0	;
	291	294	5280	0.01005	0.00039967	999	0	0	0	0	;
	316	294	15840	0.071287	0.0028349	999	0	0	0	0	;
	284	295	5280	0.013589	0.00054042	999	0	0	0	0	;
	299	295	5280	0.097946	0.0038951	999	0	0	0	0	;
	343	295	5280	0.12186	0.0048461	999	0	0	0	0	;
	180	296	5280	0.34463	0.013705	999	0	0	0	0	;
	266	296	5280	0.14694	0.0058434	999	0	0	0	0	;
	303	296	5280	0.05007	0.0019912	999	0	0	0	0	;
	352	296	5280	0.17161	0.0068247	999	0	0	0	0	;
	287	297	5280	0.014796	0.00058841	999	0	0	0	0	;
	289	297	5280	0.047517	0.0018896	999	0	0	0	0	;
	321	297	5280	0.070961	0.002822	999	0	0	0	0	;
	293	298	5280	0.017888	0.00071136	999	0	0	0	0	;
	305	298	5280	0.049869	0.0019832	999	0	0	0	0	;
	290	299	5280	0.015607	0.00062066	999	0	0	0	0	;