<NUMBER OF ZONES> 8
<TOTAL OD FLOW> 5281.371218609231
<END OF METADATA>

Origin 33
33	 : 	0;
5	 : 	108.5699431323077;
38	 : 	105.54179966769232;
6	 : 	141.50786719076925;
13	 : 	146.41418205846156;
14	 : 	111.12579291076923;
16	 : 	149.75570148307693;
29	 : 	51.531786990769234;


Origin 5
33	 : 	142.0182843446154;
5	 : 	0;
38	 : 	85.37848543692309;
6	 : 	88.15410472923077;
13	 : 	94.28706835384615;
14	 : 	61.80271768615385;
16	 : 	90.33643924307694;
29	 : 	142.2866360923077;


Origin 38
33	 : 	147.80949634153848;
5	 : 	76.6794248;
38	 : 	0;
6	 : 	30.531732080000005;
13	 : 	128.24231305538464;
14	 : 	49.447874526153846;
16	 : 	130.46939387076924;
29	 : 	140.90023891076925;


Origin 6
33	 : 	63.233632689230774;
5	 : 	107.67888321538463;
38	 : 	48.58379706153847;
6	 : 	0;
13	 : 	155.1402430369231;
14	 : 	100.16757402769232;
16	 : 	97.42057719076924;
29	 : 	49.1352584923077;


Origin 13
33	 : 	139.79325896;
5	 : 	141.57047149538462;
38	 : 	57.03776660615385;
6	 : 	101.34088578153846;
13	 : 	0;
14	 : 	49.60370212307693;
16	 : 	41.22326458769231;
29	 : 	71.66415939076923;


Origin 14
33	 : 	92.14915039384616;
5	 : 	122.33496354461539;
38	 : 	144.05946644615386;
6	 : 	140.7244443169231;
13	 : 	40.28245832923077;
14	 : 	0;
16	 : 	88.0269962;
29	 : 	58.88282138153846;


Origin 16
33	 : 	96.84169319076923;
5	 : 	134.95804248615386;
38	 : 	39.80553985846154;
6	 : 	71.70696371692308;
13	 : 	78.79688276307694;
14	 : 	124.18089839692308;
16	 : 	0;
29	 : 	105.85557688000002;


Origin 29
33	 : 	42.44376441846154;
5	 : 	82.37660095692308;
38	 : 	35.751266978461544;
6	 : 	106.00392337846155;
13	 : 	36.10638139076923;
14	 : 	50.22958322461539;
16	 : 	143.46904279384617;
29	 : 	0;


