<NUMBER OF ZONES> 8658
<TOTAL OD FLOW> 323592
<END OF METADATA>

Origin 20
31	 : 	288;
41	 : 	372;
57	 : 	216;
65	 : 	276;
72	 : 	156;
83	 : 	120;
84	 : 	192;
87	 : 	492;
101	 : 	132;
113	 : 	300;
141	 : 	84;
146	 : 	372;
167	 : 	84;
183	 : 	48;
187	 : 	156;
193	 : 	192;
229	 : 	12;
234	 : 	156;
237	 : 	120;
241	 : 	24;
263	 : 	72;
269	 : 	240;
292	 : 	48;
312	 : 	36;
314	 : 	48;
325	 : 	156;
332	 : 	84;
347	 : 	120;
350	 : 	24;
353	 : 	96;
360	 : 	60;
371	 : 	48;
375	 : 	48;
387	 : 	36;
391	 : 	108;
397	 : 	84;
399	 : 	36;
401	 : 	60;
425	 : 	36;
448	 : 	24;
453	 : 	72;
456	 : 	216;
476	 : 	72;
478	 : 	48;
493	 : 	12;
495	 : 	36;
497	 : 	24;
501	 : 	60;
502	 : 	36;
511	 : 	24;
517	 : 	72;
536	 : 	36;
539	 : 	72;
546	 : 	36;
550	 : 	24;
557	 : 	48;
558	 : 	36;
562	 : 	36;
567	 : 	48;
568	 : 	72;
579	 : 	12;
605	 : 	48;
607	 : 	36;
632	 : 	48;
644	 : 	48;
654	 : 	24;
680	 : 	24;
694	 : 	24;
702	 : 	24;
706	 : 	24;
722	 : 	12;
735	 : 	12;
741	 : 	24;
760	 : 	60;
778	 : 	12;
782	 : 	12;
784	 : 	36;
791	 : 	24;
813	 : 	24;
834	 : 	12;
851	 : 	12;
852	 : 	12;
860	 : 	24;
881	 : 	36;
933	 : 	12;
958	 : 	12;
1034	 : 	12;


Origin 31
20	 : 	240;
41	 : 	204;
57	 : 	96;
65	 : 	240;
72	 : 	108;
83	 : 	84;
84	 : 	252;
87	 : 	216;
101	 : 	168;
113	 : 	228;
141	 : 	12;
146	 : 	216;
167	 : 	60;
183	 : 	48;
187	 : 	204;
193	 : 	120;
229	 : 	24;
234	 : 	156;
237	 : 	84;
241	 : 	36;
263	 : 	48;
269	 : 	156;
292	 : 	48;
312	 : 	84;
314	 : 	96;
325	 : 	144;
332	 : 	72;
347	 : 	96;
350	 : 	48;
353	 : 	108;
360	 : 	60;
371	 : 	60;
375	 : 	24;
387	 : 	36;
391	 : 	108;
397	 : 	24;
399	 : 	24;
401	 : 	84;
406	 : 	36;
425	 : 	72;
448	 : 	48;
453	 : 	36;
456	 : 	216;
476	 : 	84;
478	 : 	96;
493	 : 	36;
495	 : 	60;
497	 : 	36;
501	 : 	60;
502	 : 	24;
511	 : 	36;
517	 : 	36;
536	 : 	36;
539	 : 	36;
546	 : 	24;
550	 : 	48;
557	 : 	84;
558	 : 	24;
567	 : 	12;
568	 : 	36;
570	 : 	24;
579	 : 	36;
607	 : 	48;
632	 : 	48;
644	 : 	12;
654	 : 	108;
680	 : 	24;
694	 : 	36;
699	 : 	36;
702	 : 	12;
706	 : 	24;
722	 : 	24;
760	 : 	12;
778	 : 	24;
782	 : 	12;
784	 : 	48;
791	 : 	12;
813	 : 	84;
820	 : 	84;
852	 : 	36;
860	 : 	60;
881	 : 	48;
899	 : 	120;
933	 : 	48;
952	 : 	12;
958	 : 	24;
996	 : 	12;
1034	 : 	12;


Origin 41
20	 : 	252;
31	 : 	192;
57	 : 	216;
65	 : 	96;
72	 : 	120;
83	 : 	36;
84	 : 	228;
87	 : 	228;
101	 : 	144;
113	 : 	132;
141	 : 	12;
146	 : 	216;
167	 : 	36;
183	 : 	36;
187	 : 	264;
193	 : 	60;
229	 : 	12;
234	 : 	132;
237	 : 	144;
241	 : 	24;
263	 : 	72;
269	 : 	132;
292	 : 	72;
312	 : 	84;
314	 : 	204;
325	 : 	252;
332	 : 	24;
347	 : 	132;
350	 : 	60;
353	 : 	108;
360	 : 	60;
371	 : 	60;
375	 : 	48;
387	 : 	132;
391	 : 	96;
397	 : 	48;
399	 : 	48;
401	 : 	96;
406	 : 	12;
425	 : 	96;
448	 : 	36;
453	 : 	24;
456	 : 	300;
476	 : 	72;
478	 : 	144;
493	 : 	24;
501	 : 	48;
502	 : 	12;
511	 : 	36;
517	 : 	84;
536	 : 	144;
539	 : 	120;
546	 : 	24;
550	 : 	24;
557	 : 	180;
558	 : 	48;
562	 : 	84;
567	 : 	48;
568	 : 	60;
570	 : 	12;
579	 : 	84;
605	 : 	12;
607	 : 	204;
632	 : 	108;
644	 : 	36;
654	 : 	48;
680	 : 	36;
694	 : 	84;
699	 : 	84;
702	 : 	48;
706	 : 	36;
722	 : 	72;
735	 : 	36;
741	 : 	12;
760	 : 	12;
782	 : 	24;
784	 : 	96;
799	 : 	12;
813	 : 	48;
820	 : 	120;
834	 : 	12;
851	 : 	48;
852	 : 	48;
860	 : 	96;
878	 : 	72;
881	 : 	48;
883	 : 	36;
899	 : 	132;
933	 : 	36;
936	 : 	12;
952	 : 	12;
958	 : 	48;
996	 : 	48;
1034	 : 	12;


Origin 57
20	 : 	168;
31	 : 	72;
41	 : 	36;
65	 : 	144;
72	 : 	180;
83	 : 	36;
84	 : 	144;
87	 : 	60;
101	 : 	60;
113	 : 	132;
141	 : 	60;
146	 : 	180;
167	 : 	132;
183	 : 	72;
187	 : 	84;
193	 : 	156;
229	 : 	36;
234	 : 	72;
237	 : 	84;
241	 : 	48;
263	 : 	156;
269	 : 	120;
292	 : 	24;
312	 : 	24;
314	 : 	96;
325	 : 	72;
332	 : 	24;
347	 : 	60;
350	 : 	60;
353	 : 	84;
360	 : 	72;
371	 : 	48;
375	 : 	36;
387	 : 	24;
391	 : 	84;
397	 : 	48;
399	 : 	12;
401	 : 	48;
406	 : 	12;
448	 : 	36;
453	 : 	12;
456	 : 	24;
476	 : 	24;
478	 : 	48;
493	 : 	24;
495	 : 	36;
497	 : 	24;
501	 : 	48;
502	 : 	36;
511	 : 	72;
517	 : 	12;
539	 : 	96;
546	 : 	36;
550	 : 	12;
557	 : 	24;
558	 : 	24;
562	 : 	24;
567	 : 	60;
568	 : 	72;
570	 : 	12;
579	 : 	12;
605	 : 	24;
607	 : 	72;
632	 : 	12;
644	 : 	60;
654	 : 	72;
680	 : 	12;
694	 : 	24;
699	 : 	48;
702	 : 	48;
706	 : 	12;
760	 : 	24;
778	 : 	24;
782	 : 	12;
784	 : 	24;
791	 : 	12;
799	 : 	24;
813	 : 	48;
820	 : 	24;
834	 : 	12;
851	 : 	24;
852	 : 	12;
860	 : 	24;
878	 : 	12;
881	 : 	72;
883	 : 	12;
899	 : 	12;
936	 : 	12;
952	 : 	12;


Origin 65
20	 : 	204;
31	 : 	180;
41	 : 	36;
57	 : 	108;
72	 : 	240;
83	 : 	84;
84	 : 	228;
87	 : 	348;
101	 : 	24;
113	 : 	132;
141	 : 	24;
146	 : 	228;
167	 : 	108;
183	 : 	12;
187	 : 	168;
193	 : 	120;
234	 : 	84;
237	 : 	132;
241	 : 	48;
263	 : 	48;
269	 : 	216;
292	 : 	96;
312	 : 	36;
314	 : 	48;
325	 : 	192;
332	 : 	48;
347	 : 	60;
350	 : 	12;
353	 : 	120;
360	 : 	36;
371	 : 	60;
375	 : 	12;
387	 : 	60;
391	 : 	72;
397	 : 	60;
399	 : 	36;
401	 : 	12;
425	 : 	12;
448	 : 	60;
453	 : 	36;
456	 : 	24;
476	 : 	48;
478	 : 	120;
493	 : 	24;
495	 : 	12;
497	 : 	12;
501	 : 	24;
502	 : 	36;
511	 : 	12;
517	 : 	72;
536	 : 	24;
539	 : 	60;
546	 : 	36;
550	 : 	12;
557	 : 	60;
558	 : 	12;
562	 : 	12;
568	 : 	48;
579	 : 	36;
605	 : 	12;
607	 : 	12;
644	 : 	84;
654	 : 	24;
680	 : 	24;
694	 : 	12;
699	 : 	24;
702	 : 	24;
706	 : 	36;
722	 : 	24;
735	 : 	12;
741	 : 	12;
760	 : 	36;
778	 : 	24;
782	 : 	24;
784	 : 	36;
799	 : 	12;
813	 : 	12;
852	 : 	36;
860	 : 	24;
881	 : 	12;
883	 : 	12;
899	 : 	24;
936	 : 	48;
958	 : 	12;
1034	 : 	12;


Origin 72
20	 : 	276;
31	 : 	96;
41	 : 	72;
57	 : 	96;
65	 : 	192;
83	 : 	108;
84	 : 	240;
87	 : 	468;
101	 : 	96;
113	 : 	168;
141	 : 	108;
146	 : 	600;
167	 : 	120;
183	 : 	168;
187	 : 	144;
193	 : 	408;
229	 : 	156;
234	 : 	204;
237	 : 	324;
241	 : 	120;
263	 : 	300;
269	 : 	288;
292	 : 	84;
312	 : 	60;
314	 : 	120;
325	 : 	156;
332	 : 	96;
347	 : 	168;
350	 : 	84;
353	 : 	228;
360	 : 	108;
371	 : 	24;
375	 : 	132;
387	 : 	60;
391	 : 	180;
397	 : 	204;
399	 : 	108;
401	 : 	180;
406	 : 	36;
425	 : 	168;
448	 : 	120;
453	 : 	72;
456	 : 	108;
476	 : 	144;
478	 : 	120;
493	 : 	60;
495	 : 	72;
497	 : 	12;
501	 : 	180;
502	 : 	192;
511	 : 	120;
517	 : 	36;
536	 : 	72;
539	 : 	156;
546	 : 	84;
550	 : 	144;
557	 : 	84;
558	 : 	12;
562	 : 	60;
567	 : 	96;
568	 : 	96;
579	 : 	12;
605	 : 	36;
607	 : 	12;
632	 : 	12;
644	 : 	72;
654	 : 	48;
680	 : 	48;
694	 : 	36;
699	 : 	36;
702	 : 	168;
706	 : 	12;
722	 : 	60;
735	 : 	48;
741	 : 	132;
760	 : 	48;
778	 : 	60;
782	 : 	24;
784	 : 	12;
791	 : 	48;
799	 : 	24;
813	 : 	120;
820	 : 	24;
834	 : 	84;
851	 : 	84;
852	 : 	84;
860	 : 	24;
878	 : 	24;
881	 : 	24;
883	 : 	36;
899	 : 	60;
936	 : 	36;
952	 : 	12;
958	 : 	24;
996	 : 	12;


Origin 83
20	 : 	156;
31	 : 	60;
41	 : 	120;
57	 : 	72;
65	 : 	84;
72	 : 	72;
84	 : 	144;
87	 : 	300;
101	 : 	24;
113	 : 	48;
141	 : 	12;
146	 : 	156;
167	 : 	48;
183	 : 	12;
187	 : 	144;
193	 : 	48;
229	 : 	24;
234	 : 	60;
237	 : 	72;
241	 : 	36;
263	 : 	36;
269	 : 	192;
292	 : 	12;
312	 : 	12;
314	 : 	60;
325	 : 	144;
332	 : 	72;
347	 : 	84;
350	 : 	24;
353	 : 	48;
360	 : 	48;
371	 : 	24;
387	 : 	48;
391	 : 	36;
397	 : 	24;
401	 : 	72;
406	 : 	36;
425	 : 	24;
448	 : 	36;
453	 : 	24;
456	 : 	144;
476	 : 	24;
478	 : 	72;
493	 : 	12;
495	 : 	24;
497	 : 	12;
501	 : 	36;
502	 : 	24;
517	 : 	36;
536	 : 	12;
539	 : 	60;
546	 : 	12;
550	 : 	24;
557	 : 	48;
562	 : 	24;
567	 : 	12;
570	 : 	12;
605	 : 	12;
607	 : 	24;
632	 : 	12;
644	 : 	12;
654	 : 	12;
694	 : 	12;
699	 : 	12;
702	 : 	24;
722	 : 	24;
741	 : 	12;
760	 : 	12;
784	 : 	36;
813	 : 	12;
851	 : 	12;
852	 : 	24;
860	 : 	24;
878	 : 	12;
881	 : 	24;
883	 : 	24;
933	 : 	12;
952	 : 	12;
958	 : 	12;
996	 : 	12;


Origin 84
20	 : 	252;
31	 : 	192;
41	 : 	228;
57	 : 	120;
65	 : 	240;
72	 : 	360;
83	 : 	84;
87	 : 	420;
101	 : 	120;
113	 : 	132;
141	 : 	24;
146	 : 	588;
167	 : 	96;
183	 : 	60;
187	 : 	204;
193	 : 	156;
229	 : 	48;
234	 : 	192;
237	 : 	204;
263	 : 	72;
269	 : 	300;
292	 : 	84;
312	 : 	84;
314	 : 	180;
325	 : 	276;
332	 : 	120;
347	 : 	240;
350	 : 	60;
353	 : 	144;
360	 : 	72;
371	 : 	156;
375	 : 	60;
387	 : 	60;
391	 : 	180;
397	 : 	48;
399	 : 	12;
401	 : 	108;
406	 : 	24;
425	 : 	108;
448	 : 	96;
453	 : 	60;
456	 : 	264;
476	 : 	72;
478	 : 	156;
493	 : 	24;
495	 : 	60;
497	 : 	24;
501	 : 	96;
502	 : 	72;
511	 : 	60;
517	 : 	72;
536	 : 	48;
539	 : 	192;
546	 : 	24;
550	 : 	72;
557	 : 	48;
558	 : 	36;
562	 : 	12;
567	 : 	72;
568	 : 	60;
579	 : 	12;
605	 : 	24;
607	 : 	36;
632	 : 	60;
644	 : 	48;
654	 : 	12;
680	 : 	72;
694	 : 	60;
699	 : 	36;
702	 : 	84;
706	 : 	84;
722	 : 	48;
735	 : 	48;
741	 : 	48;
778	 : 	12;
782	 : 	60;
784	 : 	36;
791	 : 	60;
799	 : 	12;
813	 : 	36;
820	 : 	60;
834	 : 	12;
851	 : 	24;
852	 : 	12;
860	 : 	12;
881	 : 	60;
933	 : 	36;
936	 : 	12;
952	 : 	36;
958	 : 	60;
996	 : 	36;
1034	 : 	12;


Origin 87
20	 : 	348;
31	 : 	228;
41	 : 	144;
57	 : 	72;
65	 : 	360;
72	 : 	588;
83	 : 	228;
84	 : 	312;
101	 : 	72;
113	 : 	444;
141	 : 	120;
146	 : 	552;
167	 : 	276;
183	 : 	84;
187	 : 	312;
193	 : 	576;
229	 : 	156;
234	 : 	288;
237	 : 	360;
241	 : 	60;
263	 : 	144;
269	 : 	624;
292	 : 	228;
312	 : 	120;
314	 : 	168;
325	 : 	204;
332	 : 	204;
347	 : 	264;
350	 : 	144;
353	 : 	420;
360	 : 	240;
371	 : 	96;
375	 : 	144;
387	 : 	72;
391	 : 	348;
397	 : 	72;
399	 : 	108;
401	 : 	48;
406	 : 	36;
425	 : 	216;
448	 : 	144;
453	 : 	84;
456	 : 	252;
476	 : 	156;
478	 : 	360;
493	 : 	96;
495	 : 	60;
497	 : 	36;
501	 : 	132;
502	 : 	72;
511	 : 	84;
517	 : 	96;
536	 : 	96;
539	 : 	372;
546	 : 	24;
550	 : 	132;
557	 : 	72;
558	 : 	60;
562	 : 	12;
567	 : 	48;
568	 : 	24;
570	 : 	36;
579	 : 	36;
605	 : 	12;
607	 : 	60;
632	 : 	36;
644	 : 	156;
654	 : 	48;
680	 : 	84;
694	 : 	24;
699	 : 	72;
702	 : 	60;
706	 : 	72;
722	 : 	48;
735	 : 	36;
741	 : 	24;
760	 : 	12;
778	 : 	24;
782	 : 	48;
784	 : 	36;
791	 : 	24;
813	 : 	36;
852	 : 	36;
860	 : 	36;
881	 : 	60;
883	 : 	24;
899	 : 	12;
933	 : 	36;
936	 : 	12;
952	 : 	36;
958	 : 	36;
1034	 : 	12;


Origin 101
20	 : 	120;
31	 : 	156;
41	 : 	156;
57	 : 	36;
65	 : 	48;
72	 : 	48;
84	 : 	96;
87	 : 	120;
113	 : 	96;
141	 : 	36;
146	 : 	132;
167	 : 	48;
183	 : 	12;
187	 : 	180;
229	 : 	12;
234	 : 	120;
237	 : 	24;
241	 : 	12;
263	 : 	24;
269	 : 	36;
312	 : 	60;
314	 : 	144;
325	 : 	120;
332	 : 	60;
347	 : 	120;
350	 : 	12;
360	 : 	60;
371	 : 	72;
387	 : 	60;
397	 : 	12;
399	 : 	24;
401	 : 	24;
406	 : 	12;
425	 : 	48;
448	 : 	36;
453	 : 	36;
456	 : 	96;
476	 : 	24;
478	 : 	48;
493	 : 	48;
495	 : 	24;
501	 : 	24;
511	 : 	12;
517	 : 	12;
536	 : 	24;
539	 : 	12;
546	 : 	12;
550	 : 	24;
557	 : 	12;
558	 : 	12;
562	 : 	36;
567	 : 	24;
568	 : 	12;
570	 : 	12;
579	 : 	12;
605	 : 	12;
607	 : 	24;
632	 : 	48;
654	 : 	12;
680	 : 	12;
694	 : 	60;
699	 : 	24;
702	 : 	12;
706	 : 	12;
722	 : 	24;
741	 : 	12;
778	 : 	12;
782	 : 	12;
784	 : 	36;
791	 : 	24;
799	 : 	12;
820	 : 	24;
851	 : 	24;
860	 : 	24;
899	 : 	12;
952	 : 	12;
958	 : 	60;
996	 : 	12;
1034	 : 	12;


Origin 113
20	 : 	144;
31	 : 	72;
41	 : 	36;
57	 : 	144;
65	 : 	228;
72	 : 	348;
83	 : 	36;
84	 : 	192;
87	 : 	396;
101	 : 	84;
141	 : 	48;
146	 : 	420;
167	 : 	108;
187	 : 	96;
193	 : 	60;
229	 : 	24;
234	 : 	180;
237	 : 	336;
241	 : 	60;
263	 : 	36;
269	 : 	336;
292	 : 	48;
312	 : 	84;
314	 : 	132;
325	 : 	312;
332	 : 	60;
347	 : 	156;
350	 : 	132;
353	 : 	96;
360	 : 	168;
371	 : 	204;
375	 : 	48;
387	 : 	48;
391	 : 	84;
397	 : 	12;
399	 : 	108;
401	 : 	24;
406	 : 	84;
425	 : 	48;
448	 : 	60;
453	 : 	84;
456	 : 	300;
476	 : 	60;
478	 : 	108;
493	 : 	48;
495	 : 	36;
497	 : 	48;
501	 : 	48;
502	 : 	72;
511	 : 	12;
517	 : 	72;
536	 : 	24;
539	 : 	48;
550	 : 	84;
557	 : 	108;
558	 : 	36;
562	 : 	60;
567	 : 	24;
568	 : 	48;
570	 : 	24;
579	 : 	120;
605	 : 	12;
607	 : 	48;
632	 : 	12;
644	 : 	48;
654	 : 	60;
694	 : 	36;
699	 : 	36;
702	 : 	48;
706	 : 	48;
722	 : 	36;
735	 : 	12;
741	 : 	12;
784	 : 	12;
799	 : 	48;
813	 : 	24;
820	 : 	12;
834	 : 	12;
851	 : 	36;
852	 : 	24;
860	 : 	24;
878	 : 	36;
881	 : 	12;
883	 : 	36;
899	 : 	72;
933	 : 	12;
952	 : 	12;
958	 : 	12;
1034	 : 	12;


Origin 141
20	 : 	12;
31	 : 	24;
41	 : 	36;
57	 : 	48;
65	 : 	24;
72	 : 	48;
83	 : 	24;
84	 : 	36;
87	 : 	108;
113	 : 	24;
146	 : 	60;
167	 : 	120;
183	 : 	24;
187	 : 	24;
193	 : 	108;
229	 : 	12;
237	 : 	36;
241	 : 	24;
263	 : 	48;
269	 : 	48;
292	 : 	96;
312	 : 	36;
314	 : 	24;
325	 : 	12;
332	 : 	24;
347	 : 	12;
350	 : 	12;
353	 : 	60;
360	 : 	48;
375	 : 	24;
387	 : 	12;
391	 : 	24;
397	 : 	120;
399	 : 	36;
401	 : 	60;
406	 : 	36;
448	 : 	24;
453	 : 	12;
456	 : 	36;
476	 : 	12;
493	 : 	36;
495	 : 	24;
497	 : 	12;
501	 : 	24;
502	 : 	24;
511	 : 	36;
536	 : 	12;
539	 : 	24;
546	 : 	36;
550	 : 	12;
557	 : 	24;
558	 : 	24;
562	 : 	12;
567	 : 	12;
568	 : 	60;
570	 : 	12;
605	 : 	36;
607	 : 	48;
644	 : 	36;
680	 : 	12;
694	 : 	12;
702	 : 	48;
706	 : 	12;
722	 : 	12;
735	 : 	12;
741	 : 	24;
784	 : 	24;
791	 : 	24;
813	 : 	24;
851	 : 	24;
852	 : 	12;
883	 : 	12;
899	 : 	24;


Origin 146
20	 : 	276;
31	 : 	120;
41	 : 	144;
57	 : 	252;
65	 : 	264;
72	 : 	456;
83	 : 	180;
84	 : 	456;
87	 : 	564;
101	 : 	72;
113	 : 	324;
141	 : 	24;
167	 : 	288;
183	 : 	36;
187	 : 	264;
193	 : 	144;
229	 : 	72;
234	 : 	384;
237	 : 	300;
241	 : 	48;
263	 : 	120;
269	 : 	420;
292	 : 	60;
312	 : 	156;
314	 : 	132;
325	 : 	288;
332	 : 	276;
347	 : 	360;
350	 : 	132;
353	 : 	264;
360	 : 	204;
371	 : 	156;
375	 : 	48;
387	 : 	84;
391	 : 	132;
397	 : 	72;
399	 : 	48;
401	 : 	84;
406	 : 	24;
425	 : 	72;
448	 : 	108;
453	 : 	24;
456	 : 	312;
476	 : 	132;
478	 : 	300;
493	 : 	84;
495	 : 	96;
497	 : 	36;
501	 : 	84;
502	 : 	120;
511	 : 	60;
517	 : 	60;
536	 : 	48;
539	 : 	168;
546	 : 	24;
550	 : 	96;
557	 : 	132;
558	 : 	24;
562	 : 	12;
567	 : 	24;
568	 : 	72;
570	 : 	36;
579	 : 	60;
605	 : 	12;
607	 : 	24;
632	 : 	60;
644	 : 	72;
654	 : 	36;
680	 : 	36;
694	 : 	24;
699	 : 	48;
702	 : 	24;
706	 : 	84;
722	 : 	48;
735	 : 	120;
741	 : 	72;
760	 : 	24;
778	 : 	12;
782	 : 	12;
784	 : 	24;
791	 : 	12;
799	 : 	36;
813	 : 	72;
820	 : 	36;
851	 : 	48;
852	 : 	72;
860	 : 	48;
878	 : 	24;
881	 : 	36;
883	 : 	24;
899	 : 	96;
933	 : 	12;
936	 : 	12;
952	 : 	12;
958	 : 	24;


Origin 167
20	 : 	84;
31	 : 	36;
41	 : 	60;
57	 : 	84;
65	 : 	96;
72	 : 	384;
83	 : 	24;
84	 : 	60;
87	 : 	276;
101	 : 	36;
113	 : 	108;
141	 : 	36;
146	 : 	396;
183	 : 	108;
187	 : 	60;
193	 : 	204;
229	 : 	36;
234	 : 	156;
237	 : 	240;
241	 : 	60;
263	 : 	108;
269	 : 	228;
292	 : 	180;
312	 : 	48;
314	 : 	72;
325	 : 	84;
332	 : 	60;
347	 : 	60;
350	 : 	180;
353	 : 	216;
360	 : 	120;
371	 : 	72;
375	 : 	156;
387	 : 	24;
391	 : 	264;
397	 : 	48;
399	 : 	24;
401	 : 	12;
406	 : 	24;
425	 : 	60;
448	 : 	108;
453	 : 	72;
456	 : 	108;
476	 : 	120;
478	 : 	108;
493	 : 	60;
495	 : 	60;
497	 : 	24;
501	 : 	36;
502	 : 	120;
511	 : 	36;
517	 : 	60;
536	 : 	12;
539	 : 	84;
546	 : 	36;
550	 : 	60;
557	 : 	60;
562	 : 	12;
567	 : 	36;
568	 : 	72;
579	 : 	24;
605	 : 	12;
607	 : 	36;
632	 : 	12;
644	 : 	48;
654	 : 	12;
680	 : 	36;
694	 : 	36;
702	 : 	72;
706	 : 	36;
735	 : 	24;
741	 : 	36;
778	 : 	36;
782	 : 	24;
784	 : 	36;
791	 : 	36;
799	 : 	12;
813	 : 	24;
820	 : 	36;
834	 : 	72;
851	 : 	12;
852	 : 	24;
860	 : 	12;
899	 : 	12;
933	 : 	24;
936	 : 	12;
952	 : 	60;
958	 : 	12;
996	 : 	12;
1034	 : 	12;


Origin 183
20	 : 	12;
31	 : 	24;
41	 : 	60;
57	 : 	96;
65	 : 	48;
72	 : 	228;
83	 : 	36;
84	 : 	60;
87	 : 	288;
113	 : 	48;
141	 : 	24;
146	 : 	264;
167	 : 	96;
187	 : 	36;
193	 : 	36;
229	 : 	48;
234	 : 	48;
237	 : 	108;
241	 : 	72;
263	 : 	72;
269	 : 	120;
292	 : 	72;
312	 : 	48;
314	 : 	24;
325	 : 	24;
347	 : 	48;
350	 : 	36;
353	 : 	60;
360	 : 	60;
371	 : 	24;
375	 : 	180;
387	 : 	36;
391	 : 	96;
397	 : 	72;
399	 : 	48;
401	 : 	84;
406	 : 	36;
425	 : 	24;
448	 : 	60;
453	 : 	60;
456	 : 	36;
478	 : 	24;
493	 : 	24;
495	 : 	60;
497	 : 	24;
501	 : 	60;
502	 : 	48;
511	 : 	36;
517	 : 	12;
536	 : 	12;
539	 : 	120;
546	 : 	24;
550	 : 	24;
557	 : 	12;
558	 : 	12;
567	 : 	24;
568	 : 	72;
570	 : 	24;
579	 : 	72;
605	 : 	12;
607	 : 	12;
644	 : 	36;
654	 : 	24;
680	 : 	12;
699	 : 	24;
702	 : 	48;
706	 : 	48;
735	 : 	12;
741	 : 	12;
760	 : 	12;
778	 : 	36;
782	 : 	24;
784	 : 	24;
813	 : 	12;
834	 : 	12;
851	 : 	12;
852	 : 	48;
860	 : 	36;
881	 : 	60;
958	 : 	12;
996	 : 	24;


Origin 187
20	 : 	144;
31	 : 	120;
41	 : 	144;
57	 : 	48;
65	 : 	120;
72	 : 	192;
83	 : 	84;
84	 : 	156;
87	 : 	252;
101	 : 	156;
113	 : 	132;
141	 : 	12;
146	 : 	276;
167	 : 	72;
183	 : 	24;
193	 : 	48;
229	 : 	24;
234	 : 	144;
237	 : 	84;
241	 : 	36;
263	 : 	36;
269	 : 	132;
292	 : 	12;
312	 : 	72;
314	 : 	216;
325	 : 	240;
332	 : 	108;
347	 : 	120;
350	 : 	60;
353	 : 	60;
360	 : 	84;
371	 : 	192;
375	 : 	24;
387	 : 	96;
391	 : 	72;
397	 : 	84;
399	 : 	60;
401	 : 	24;
406	 : 	72;
425	 : 	12;
448	 : 	72;
453	 : 	24;
456	 : 	252;
476	 : 	156;
478	 : 	240;
493	 : 	60;
495	 : 	12;
497	 : 	48;
501	 : 	60;
502	 : 	12;
511	 : 	12;
517	 : 	12;
536	 : 	24;
539	 : 	48;
550	 : 	36;
557	 : 	84;
558	 : 	24;
562	 : 	12;
568	 : 	12;
570	 : 	24;
579	 : 	60;
605	 : 	12;
607	 : 	48;
632	 : 	48;
644	 : 	60;
654	 : 	36;
680	 : 	12;
694	 : 	24;
699	 : 	24;
702	 : 	12;
706	 : 	12;
722	 : 	36;
735	 : 	12;
741	 : 	48;
760	 : 	24;
778	 : 	36;
784	 : 	24;
791	 : 	12;
813	 : 	24;
820	 : 	48;
834	 : 	12;
851	 : 	36;
852	 : 	24;
860	 : 	24;
878	 : 	24;
881	 : 	12;
883	 : 	12;
899	 : 	60;
933	 : 	12;
936	 : 	12;
952	 : 	12;
958	 : 	36;
996	 : 	36;
1034	 : 	24;


Origin 193
20	 : 	72;
31	 : 	60;
41	 : 	36;
57	 : 	48;
65	 : 	108;
72	 : 	192;
83	 : 	12;
84	 : 	36;
87	 : 	252;
101	 : 	24;
113	 : 	60;
141	 : 	60;
146	 : 	72;
167	 : 	48;
183	 : 	48;
229	 : 	36;
234	 : 	48;
237	 : 	96;
241	 : 	24;
263	 : 	60;
269	 : 	156;
292	 : 	12;
312	 : 	24;
314	 : 	12;
325	 : 	72;
332	 : 	48;
347	 : 	48;
350	 : 	120;
353	 : 	108;
360	 : 	24;
371	 : 	24;
375	 : 	36;
387	 : 	24;
391	 : 	168;
397	 : 	108;
401	 : 	60;
406	 : 	36;
425	 : 	48;
448	 : 	36;
453	 : 	48;
456	 : 	12;
476	 : 	60;
478	 : 	36;
493	 : 	72;
495	 : 	36;
497	 : 	36;
501	 : 	96;
502	 : 	72;
511	 : 	48;
517	 : 	24;
536	 : 	12;
539	 : 	96;
546	 : 	24;
550	 : 	48;
557	 : 	24;
558	 : 	12;
562	 : 	12;
567	 : 	36;
568	 : 	36;
570	 : 	24;
579	 : 	48;
605	 : 	36;
607	 : 	24;
644	 : 	36;
654	 : 	108;
680	 : 	48;
694	 : 	12;
699	 : 	48;
702	 : 	84;
722	 : 	24;
735	 : 	12;
741	 : 	36;
760	 : 	12;
778	 : 	24;
782	 : 	24;
791	 : 	24;
799	 : 	24;
813	 : 	12;
820	 : 	24;
834	 : 	12;
852	 : 	36;
860	 : 	24;
878	 : 	12;
881	 : 	24;
883	 : 	12;
899	 : 	24;
933	 : 	36;
936	 : 	12;
952	 : 	60;
958	 : 	48;


Origin 229
20	 : 	48;
31	 : 	84;
57	 : 	96;
65	 : 	36;
72	 : 	228;
83	 : 	12;
84	 : 	60;
87	 : 	324;
101	 : 	12;
113	 : 	96;
141	 : 	36;
146	 : 	252;
167	 : 	60;
183	 : 	24;
187	 : 	84;
193	 : 	48;
234	 : 	72;
237	 : 	144;
241	 : 	36;
263	 : 	36;
269	 : 	108;
292	 : 	84;
312	 : 	36;
314	 : 	24;
325	 : 	132;
332	 : 	48;
347	 : 	48;
353	 : 	84;
371	 : 	12;
375	 : 	24;
387	 : 	48;
391	 : 	84;
397	 : 	12;
399	 : 	12;
401	 : 	24;
406	 : 	36;
425	 : 	24;
448	 : 	36;
453	 : 	48;
456	 : 	132;
476	 : 	84;
478	 : 	108;
495	 : 	24;
497	 : 	24;
501	 : 	48;
502	 : 	12;
511	 : 	36;
536	 : 	24;
539	 : 	36;
557	 : 	36;
558	 : 	24;
562	 : 	12;
567	 : 	12;
568	 : 	24;
570	 : 	12;
579	 : 	24;
607	 : 	36;
632	 : 	36;
644	 : 	84;
654	 : 	12;
680	 : 	24;
694	 : 	24;
702	 : 	12;
706	 : 	24;
722	 : 	36;
741	 : 	36;
778	 : 	12;
784	 : 	12;
791	 : 	12;
834	 : 	12;
851	 : 	24;
852	 : 	12;
860	 : 	12;
883	 : 	12;
899	 : 	12;
933	 : 	12;
936	 : 	24;
952	 : 	12;


Origin 234
20	 : 	288;
31	 : 	168;
41	 : 	132;
57	 : 	120;
65	 : 	252;
72	 : 	192;
83	 : 	84;
84	 : 	300;
87	 : 	588;
101	 : 	192;
113	 : 	180;
141	 : 	48;
146	 : 	516;
167	 : 	240;
183	 : 	48;
187	 : 	192;
193	 : 	60;
229	 : 	60;
237	 : 	216;
241	 : 	48;
263	 : 	72;
269	 : 	324;
292	 : 	24;
312	 : 	120;
314	 : 	132;
325	 : 	192;
332	 : 	60;
347	 : 	264;
350	 : 	96;
353	 : 	96;
360	 : 	144;
371	 : 	204;
375	 : 	48;
387	 : 	240;
391	 : 	120;
399	 : 	48;
401	 : 	24;
406	 : 	24;
425	 : 	120;
448	 : 	84;
453	 : 	48;
456	 : 	312;
476	 : 	132;
478	 : 	216;
493	 : 	24;
495	 : 	36;
501	 : 	72;
502	 : 	36;
511	 : 	36;
517	 : 	60;
536	 : 	12;
539	 : 	84;
546	 : 	12;
550	 : 	84;
557	 : 	204;
558	 : 	12;
562	 : 	60;
567	 : 	12;
568	 : 	36;
570	 : 	36;
579	 : 	60;
605	 : 	12;
632	 : 	60;
644	 : 	72;
654	 : 	48;
680	 : 	24;
694	 : 	48;
702	 : 	36;
706	 : 	36;
722	 : 	24;
741	 : 	48;
760	 : 	24;
778	 : 	36;
782	 : 	60;
784	 : 	72;
791	 : 	72;
820	 : 	48;
834	 : 	24;
851	 : 	24;
852	 : 	36;
860	 : 	60;
883	 : 	24;
899	 : 	72;
933	 : 	12;
936	 : 	12;
952	 : 	12;
958	 : 	12;
996	 : 	24;


Origin 237
20	 : 	168;
31	 : 	60;
41	 : 	24;
57	 : 	168;
65	 : 	192;
72	 : 	348;
83	 : 	96;
84	 : 	252;
87	 : 	576;
101	 : 	84;
113	 : 	252;
141	 : 	72;
146	 : 	612;
167	 : 	132;
183	 : 	120;
187	 : 	120;
193	 : 	120;
229	 : 	48;
234	 : 	216;
241	 : 	36;
263	 : 	96;
269	 : 	228;
292	 : 	144;
312	 : 	360;
314	 : 	48;
325	 : 	72;
332	 : 	60;
347	 : 	132;
350	 : 	252;
353	 : 	108;
360	 : 	276;
371	 : 	120;
375	 : 	84;
387	 : 	84;
391	 : 	132;
397	 : 	132;
399	 : 	120;
401	 : 	120;
406	 : 	48;
425	 : 	108;
448	 : 	192;
453	 : 	240;
456	 : 	156;
476	 : 	180;
478	 : 	228;
493	 : 	60;
495	 : 	84;
497	 : 	48;
501	 : 	72;
502	 : 	36;
511	 : 	72;
517	 : 	144;
536	 : 	156;
539	 : 	324;
546	 : 	24;
550	 : 	72;
557	 : 	156;
558	 : 	60;
562	 : 	36;
567	 : 	48;
568	 : 	84;
570	 : 	60;
579	 : 	36;
605	 : 	72;
607	 : 	108;
632	 : 	60;
644	 : 	120;
654	 : 	48;
680	 : 	120;
694	 : 	12;
699	 : 	84;
702	 : 	60;
706	 : 	96;
722	 : 	84;
735	 : 	12;
741	 : 	24;
760	 : 	12;
778	 : 	36;
782	 : 	24;
784	 : 	72;
799	 : 	12;
813	 : 	24;
820	 : 	24;
834	 : 	12;
851	 : 	12;
852	 : 	36;
860	 : 	12;
881	 : 	48;
883	 : 	36;
899	 : 	108;
933	 : 	36;
936	 : 	72;
952	 : 	24;
958	 : 	72;
1034	 : 	24;


Origin 241
20	 : 	48;
31	 : 	24;
41	 : 	60;
57	 : 	24;
65	 : 	36;
72	 : 	96;
84	 : 	48;
87	 : 	156;
101	 : 	12;
113	 : 	24;
141	 : 	24;
146	 : 	168;
167	 : 	48;
183	 : 	48;
187	 : 	12;
193	 : 	204;
229	 : 	36;
234	 : 	60;
237	 : 	96;
263	 : 	60;
269	 : 	84;
292	 : 	108;
312	 : 	48;
314	 : 	12;
325	 : 	36;
332	 : 	36;
347	 : 	36;
350	 : 	24;
353	 : 	36;
360	 : 	36;
371	 : 	24;
375	 : 	96;
387	 : 	12;
391	 : 	132;
397	 : 	108;
399	 : 	24;
401	 : 	120;
425	 : 	12;
448	 : 	60;
453	 : 	12;
456	 : 	24;
476	 : 	12;
478	 : 	24;
493	 : 	60;
495	 : 	24;
497	 : 	96;
501	 : 	48;
502	 : 	96;
511	 : 	72;
517	 : 	36;
536	 : 	36;
539	 : 	96;
546	 : 	60;
550	 : 	24;
558	 : 	96;
567	 : 	72;
568	 : 	72;
570	 : 	48;
579	 : 	36;
605	 : 	36;
607	 : 	24;
632	 : 	12;
644	 : 	12;
654	 : 	12;
680	 : 	12;
699	 : 	24;
702	 : 	84;
706	 : 	12;
722	 : 	48;
741	 : 	36;
760	 : 	12;
778	 : 	36;
782	 : 	36;
791	 : 	12;
799	 : 	12;
813	 : 	12;
820	 : 	24;
834	 : 	12;
851	 : 	12;
852	 : 	36;
860	 : 	24;
881	 : 	36;
883	 : 	24;
899	 : 	36;
933	 : 	24;
936	 : 	24;
952	 : 	48;
1034	 : 	12;


Origin 263
20	 : 	60;
31	 : 	36;
41	 : 	24;
57	 : 	84;
65	 : 	48;
72	 : 	180;
83	 : 	24;
84	 : 	84;
87	 : 	348;
101	 : 	36;
113	 : 	48;
141	 : 	48;
146	 : 	192;
167	 : 	156;
183	 : 	96;
187	 : 	36;
193	 : 	132;
229	 : 	108;
234	 : 	24;
237	 : 	180;
241	 : 	60;
269	 : 	72;
292	 : 	60;
312	 : 	156;
314	 : 	24;
325	 : 	48;
332	 : 	72;
347	 : 	12;
350	 : 	48;
353	 : 	84;
360	 : 	36;
371	 : 	36;
375	 : 	144;
387	 : 	24;
391	 : 	156;
397	 : 	156;
399	 : 	84;
401	 : 	192;
425	 : 	48;
448	 : 	84;
453	 : 	60;
456	 : 	84;
476	 : 	48;
478	 : 	96;
493	 : 	132;
495	 : 	60;
501	 : 	36;
502	 : 	96;
511	 : 	72;
517	 : 	48;
536	 : 	12;
539	 : 	72;
550	 : 	84;
557	 : 	24;
558	 : 	36;
562	 : 	12;
567	 : 	60;
568	 : 	48;
570	 : 	24;
579	 : 	12;
605	 : 	36;
607	 : 	24;
632	 : 	12;
644	 : 	60;
654	 : 	60;
680	 : 	24;
694	 : 	12;
699	 : 	24;
702	 : 	108;
706	 : 	24;
722	 : 	36;
735	 : 	12;
741	 : 	24;
778	 : 	48;
782	 : 	24;
784	 : 	24;
791	 : 	12;
799	 : 	24;
820	 : 	12;
834	 : 	24;
851	 : 	48;
852	 : 	12;
860	 : 	12;
878	 : 	24;
881	 : 	24;
883	 : 	12;
899	 : 	12;
933	 : 	36;
952	 : 	24;
958	 : 	12;


Origin 269
20	 : 	168;
31	 : 	168;
41	 : 	72;
57	 : 	228;
65	 : 	240;
72	 : 	384;
83	 : 	96;
84	 : 	312;
87	 : 	732;
101	 : 	72;
113	 : 	324;
141	 : 	84;
146	 : 	624;
167	 : 	264;
183	 : 	84;
187	 : 	204;
193	 : 	156;
229	 : 	72;
234	 : 	288;
237	 : 	180;
241	 : 	36;
263	 : 	36;
292	 : 	60;
312	 : 	312;
314	 : 	132;
325	 : 	216;
332	 : 	84;
347	 : 	288;
350	 : 	132;
353	 : 	96;
360	 : 	264;
371	 : 	60;
375	 : 	12;
387	 : 	60;
391	 : 	108;
397	 : 	96;
399	 : 	108;
401	 : 	48;
406	 : 	72;
425	 : 	96;
448	 : 	72;
453	 : 	60;
456	 : 	288;
476	 : 	72;
478	 : 	192;
493	 : 	36;
495	 : 	24;
497	 : 	60;
501	 : 	84;
502	 : 	96;
511	 : 	24;
517	 : 	72;
536	 : 	48;
539	 : 	108;
546	 : 	48;
550	 : 	144;
557	 : 	204;
558	 : 	36;
562	 : 	48;
567	 : 	36;
568	 : 	48;
570	 : 	12;
579	 : 	48;
605	 : 	24;
607	 : 	36;
632	 : 	48;
644	 : 	48;
654	 : 	36;
680	 : 	72;
694	 : 	72;
699	 : 	12;
702	 : 	72;
706	 : 	36;
722	 : 	84;
735	 : 	36;
741	 : 	24;
760	 : 	60;
778	 : 	12;
782	 : 	60;
784	 : 	72;
799	 : 	36;
813	 : 	36;
820	 : 	24;
834	 : 	24;
851	 : 	12;
852	 : 	36;
860	 : 	24;
878	 : 	12;
881	 : 	12;
883	 : 	12;
899	 : 	48;
936	 : 	24;
952	 : 	12;
1034	 : 	12;


Origin 292
20	 : 	96;
31	 : 	72;
41	 : 	72;
57	 : 	36;
65	 : 	48;
72	 : 	156;
83	 : 	24;
84	 : 	84;
87	 : 	264;
101	 : 	24;
113	 : 	36;
141	 : 	84;
146	 : 	96;
167	 : 	60;
183	 : 	96;
187	 : 	96;
193	 : 	12;
229	 : 	72;
234	 : 	72;
237	 : 	96;
241	 : 	48;
263	 : 	120;
269	 : 	96;
325	 : 	36;
332	 : 	24;
347	 : 	72;
350	 : 	120;
353	 : 	132;
360	 : 	36;
371	 : 	24;
375	 : 	132;
387	 : 	36;
391	 : 	300;
397	 : 	168;
399	 : 	12;
401	 : 	48;
406	 : 	72;
425	 : 	24;
448	 : 	84;
453	 : 	84;
456	 : 	36;
476	 : 	36;
478	 : 	84;
493	 : 	132;
495	 : 	96;
497	 : 	84;
501	 : 	156;
502	 : 	132;
511	 : 	72;
517	 : 	96;
536	 : 	48;
539	 : 	228;
546	 : 	72;
550	 : 	108;
557	 : 	60;
558	 : 	48;
562	 : 	24;
567	 : 	60;
568	 : 	84;
570	 : 	36;
579	 : 	72;
605	 : 	24;
607	 : 	84;
632	 : 	24;
644	 : 	132;
654	 : 	120;
680	 : 	60;
694	 : 	36;
699	 : 	72;
702	 : 	84;
706	 : 	48;
722	 : 	24;
735	 : 	60;
741	 : 	36;
760	 : 	12;
778	 : 	48;
782	 : 	12;
784	 : 	48;
791	 : 	48;
799	 : 	12;
813	 : 	72;
820	 : 	48;
834	 : 	48;
851	 : 	132;
852	 : 	60;
860	 : 	72;
881	 : 	72;
883	 : 	24;
899	 : 	48;
933	 : 	84;
936	 : 	24;
952	 : 	12;
958	 : 	48;
996	 : 	12;
1034	 : 	36;


Origin 312
20	 : 	72;
31	 : 	120;
41	 : 	192;
57	 : 	84;
65	 : 	132;
72	 : 	228;
83	 : 	120;
84	 : 	156;
87	 : 	492;
101	 : 	120;
113	 : 	216;
141	 : 	48;
146	 : 	504;
167	 : 	132;
183	 : 	60;
187	 : 	132;
193	 : 	12;
229	 : 	48;
234	 : 	204;
237	 : 	360;
241	 : 	48;
263	 : 	96;
269	 : 	372;
292	 : 	60;
314	 : 	108;
325	 : 	180;
332	 : 	144;
347	 : 	108;
350	 : 	240;
353	 : 	180;
360	 : 	24;
371	 : 	120;
375	 : 	36;
387	 : 	132;
391	 : 	336;
397	 : 	96;
399	 : 	12;
401	 : 	84;
406	 : 	24;
425	 : 	108;
448	 : 	120;
453	 : 	108;
456	 : 	204;
476	 : 	264;
478	 : 	156;
493	 : 	168;
495	 : 	180;
497	 : 	24;
501	 : 	96;
502	 : 	96;
511	 : 	12;
517	 : 	60;
536	 : 	156;
539	 : 	216;
546	 : 	12;
550	 : 	180;
557	 : 	96;
558	 : 	24;
562	 : 	84;
567	 : 	36;
568	 : 	24;
570	 : 	120;
579	 : 	72;
605	 : 	24;
607	 : 	84;
632	 : 	72;
644	 : 	36;
654	 : 	216;
680	 : 	12;
694	 : 	96;
699	 : 	144;
702	 : 	36;
706	 : 	24;
722	 : 	84;
735	 : 	36;
741	 : 	48;
760	 : 	36;
782	 : 	84;
784	 : 	72;
791	 : 	48;
799	 : 	36;
813	 : 	96;
820	 : 	96;
834	 : 	12;
851	 : 	48;
852	 : 	72;
860	 : 	72;
878	 : 	60;
881	 : 	108;
883	 : 	96;
899	 : 	84;
933	 : 	108;
936	 : 	12;
952	 : 	12;
958	 : 	72;
996	 : 	12;
1034	 : 	24;


Origin 314
20	 : 	48;
31	 : 	60;
41	 : 	72;
57	 : 	12;
65	 : 	60;
72	 : 	96;
83	 : 	12;
84	 : 	108;
87	 : 	36;
101	 : 	120;
113	 : 	84;
141	 : 	12;
146	 : 	72;
167	 : 	24;
183	 : 	12;
187	 : 	60;
229	 : 	24;
234	 : 	168;
237	 : 	12;
263	 : 	24;
269	 : 	24;
292	 : 	24;
312	 : 	36;
325	 : 	180;
332	 : 	36;
347	 : 	96;
350	 : 	12;
353	 : 	36;
360	 : 	12;
371	 : 	84;
387	 : 	72;
401	 : 	24;
425	 : 	24;
448	 : 	48;
453	 : 	12;
456	 : 	192;
476	 : 	108;
478	 : 	216;
493	 : 	48;
501	 : 	12;
502	 : 	24;
511	 : 	12;
517	 : 	24;
539	 : 	24;
557	 : 	36;
562	 : 	72;
567	 : 	12;
605	 : 	24;
607	 : 	24;
632	 : 	12;
694	 : 	12;
706	 : 	12;
722	 : 	36;
735	 : 	12;
760	 : 	12;
778	 : 	12;
791	 : 	24;
820	 : 	12;
851	 : 	48;
860	 : 	24;
878	 : 	12;
899	 : 	12;


Origin 325
20	 : 	36;
31	 : 	108;
41	 : 	96;
57	 : 	108;
65	 : 	60;
72	 : 	120;
83	 : 	24;
84	 : 	72;
87	 : 	156;
101	 : 	108;
113	 : 	264;
141	 : 	24;
146	 : 	264;
167	 : 	72;
183	 : 	36;
187	 : 	84;
193	 : 	24;
229	 : 	24;
234	 : 	132;
237	 : 	96;
241	 : 	24;
263	 : 	24;
269	 : 	84;
292	 : 	24;
312	 : 	48;
314	 : 	168;
332	 : 	36;
347	 : 	72;
350	 : 	48;
353	 : 	48;
360	 : 	96;
371	 : 	192;
387	 : 	84;
391	 : 	72;
397	 : 	24;
399	 : 	36;
401	 : 	60;
406	 : 	36;
425	 : 	60;
448	 : 	96;
453	 : 	12;
456	 : 	192;
476	 : 	84;
478	 : 	384;
497	 : 	36;
501	 : 	24;
502	 : 	12;
511	 : 	24;
517	 : 	12;
536	 : 	72;
539	 : 	72;
550	 : 	12;
557	 : 	180;
562	 : 	84;
568	 : 	48;
579	 : 	60;
605	 : 	24;
607	 : 	96;
632	 : 	72;
644	 : 	36;
654	 : 	36;
694	 : 	48;
699	 : 	48;
706	 : 	24;
722	 : 	36;
735	 : 	24;
741	 : 	24;
782	 : 	36;
784	 : 	48;
799	 : 	12;
813	 : 	24;
820	 : 	48;
860	 : 	24;
881	 : 	24;
899	 : 	36;
936	 : 	12;
958	 : 	36;
996	 : 	24;
1034	 : 	24;


Origin 332
20	 : 	84;
31	 : 	36;
41	 : 	48;
57	 : 	24;
65	 : 	96;
72	 : 	156;
83	 : 	12;
84	 : 	144;
87	 : 	312;
101	 : 	84;
113	 : 	96;
141	 : 	60;
146	 : 	228;
167	 : 	24;
183	 : 	24;
187	 : 	120;
193	 : 	48;
229	 : 	12;
234	 : 	144;
237	 : 	216;
241	 : 	48;
263	 : 	48;
269	 : 	144;
292	 : 	24;
312	 : 	108;
314	 : 	96;
325	 : 	108;
347	 : 	132;
350	 : 	60;
353	 : 	48;
360	 : 	120;
371	 : 	132;
387	 : 	144;
391	 : 	60;
399	 : 	24;
406	 : 	12;
425	 : 	84;
448	 : 	72;
453	 : 	12;
456	 : 	288;
476	 : 	144;
478	 : 	96;
493	 : 	12;
495	 : 	48;
497	 : 	12;
501	 : 	96;
502	 : 	24;
511	 : 	12;
517	 : 	48;
536	 : 	72;
539	 : 	48;
557	 : 	132;
558	 : 	36;
562	 : 	60;
567	 : 	12;
568	 : 	24;
570	 : 	24;
579	 : 	96;
607	 : 	36;
632	 : 	24;
644	 : 	36;
654	 : 	60;
680	 : 	12;
694	 : 	24;
699	 : 	12;
706	 : 	24;
722	 : 	24;
735	 : 	12;
741	 : 	36;
760	 : 	12;
778	 : 	12;
784	 : 	36;
791	 : 	12;
813	 : 	36;
820	 : 	12;
834	 : 	24;
851	 : 	48;
852	 : 	12;