<NUMBER OF ZONES> 8
<TOTAL OD FLOW> 4000
<END OF METADATA>


Origin  6  
13	:	354.720245;	16	:	324.672130;	14	:	534.821076;	
38	:	512.174595;	33	:	542.078359;	29	:	397.661285;	
5	:	461.323299;	

Origin  13  
6	:	336.926944;	16	:	456.882147;	14	:	384.561502;	
38	:	312.541303;	33	:	263.041909;	29	:	326.924731;	
5	:	397.869301;	

Origin  16  
6	:	314.076733;	13	:	346.754937;	14	:	404.042003;	
38	:	441.498112;	33	:	545.767632;	29	:	373.429184;	
5	:	206.935190;	

Origin  14  
6	:	357.819737;	13	:	568.285520;	16	:	289.165301;	
38	:	278.454289;	33	:	418.476236;	29	:	498.190542;	
5	:	403.710599;	

Origin  38  
6	:	212.098380;	13	:	298.833331;	16	:	421.121474;	
14	:	246.921032;	33	:	444.620824;	29	:	233.738291;	
5	:	404.828914;	

Origin  33  
6	:	451.661229;	13	:	345.696769;	16	:	437.149443;	
14	:	305.682589;	38	:	464.929583;	29	:	239.322451;	
5	:	213.707750;	

Origin  29  
6	:	425.087071;	13	:	587.942183;	16	:	388.210953;	
14	:	283.596486;	38	:	499.665265;	33	:	330.027228;	
5	:	281.203231;	

Origin  5  
6	:	233.036952;	13	:	282.506534;	16	:	234.328782;	
14	:	259.215801;	38	:	422.344121;	33	:	587.861850;	
29	:	283.398140;	

