<NUMBER OF ZONES> 8
<TOTAL OD FLOW> 0
<END OF METADATA>


Origin  6  
13	:	2965.916411;	16	:	1862.452211;	14	:	1914.968327;	
38	:	928.807885;	33	:	1208.878272;	29	:	939.350530;	
5	:	2058.566885;	

Origin  13  
6	:	1937.399287;	16	:	788.091823;	14	:	948.306070;	
38	:	1090.427891;	33	:	2672.518186;	29	:	1370.050106;	
5	:	2706.494308;	

Origin  16  
6	:	1370.868424;	13	:	1506.410994;	14	:	2374.046587;	
38	:	760.988262;	33	:	1851.385311;	29	:	2023.709558;	
5	:	2580.080224;	

Origin  14  
6	:	2690.320259;	13	:	770.105821;	16	:	1682.869045;	
38	:	2754.078035;	33	:	1761.674934;	29	:	1125.700997;	
5	:	2338.756656;	

Origin  38  
6	:	583.694878;	13	:	2451.691279;	16	:	2494.267824;	
14	:	945.327013;	33	:	2825.769783;	29	:	2693.681038;	
5	:	1465.930180;	

Origin  33  
6	:	2705.297461;	13	:	2799.094657;	16	:	2862.976646;	
14	:	2124.463688;	38	:	2017.710876;	29	:	985.166516;	
5	:	2075.601854;	

Origin  29  
6	:	2026.545594;	13	:	690.269056;	16	:	2742.790524;	
14	:	960.271444;	38	:	683.480104;	33	:	811.424908;	
5	:	1574.846783;	

Origin  5  
6	:	1685.299061;	13	:	1802.546895;	16	:	1727.020162;	
14	:	1181.522544;	38	:	1632.235751;	33	:	2715.055436;	
29	:	2720.185690;	

