<NUMBER OF ZONES> 8658
<TOTAL OD FLOW> 323592
<END OF METADATA>

Origin 20
20	 : 	0;
31	 : 	144;
41	 : 	186;
57	 : 	108;
65	 : 	138;
72	 : 	78;
83	 : 	60;
84	 : 	96;
87	 : 	246;
101	 : 	66;
113	 : 	150;
141	 : 	42;
146	 : 	186;
167	 : 	42;
183	 : 	24;
187	 : 	78;
193	 : 	96;
229	 : 	6;
234	 : 	78;
237	 : 	60;
241	 : 	12;
263	 : 	36;
269	 : 	120;
292	 : 	24;
312	 : 	18;
314	 : 	24;
325	 : 	78;
332	 : 	42;
347	 : 	60;
350	 : 	12;
353	 : 	48;
360	 : 	30;
371	 : 	24;
375	 : 	24;
387	 : 	18;
391	 : 	54;
397	 : 	42;
399	 : 	18;
401	 : 	30;
406	 : 	0;
425	 : 	18;
448	 : 	12;
453	 : 	36;
456	 : 	108;
476	 : 	36;
478	 : 	24;
493	 : 	6;
495	 : 	18;
497	 : 	12;
501	 : 	30;
502	 : 	18;
511	 : 	12;
517	 : 	36;
536	 : 	18;
539	 : 	36;
546	 : 	18;
550	 : 	12;
557	 : 	24;
558	 : 	18;
562	 : 	18;
567	 : 	24;
568	 : 	36;
570	 : 	0;
579	 : 	6;
605	 : 	24;
607	 : 	18;
632	 : 	24;
644	 : 	24;
654	 : 	12;
680	 : 	12;
694	 : 	12;
699	 : 	0;
702	 : 	12;
706	 : 	12;
722	 : 	6;
735	 : 	6;
741	 : 	12;
760	 : 	30;
778	 : 	6;
782	 : 	6;
784	 : 	18;
791	 : 	12;
799	 : 	0;
813	 : 	12;
820	 : 	0;
834	 : 	6;
851	 : 	6;
852	 : 	6;
860	 : 	12;
878	 : 	0;
881	 : 	18;
883	 : 	0;
899	 : 	0;
933	 : 	6;
936	 : 	0;
952	 : 	0;
958	 : 	6;
996	 : 	0;
1034	 : 	6;


Origin 31
20	 : 	120;
31	 : 	0;
41	 : 	102;
57	 : 	48;
65	 : 	120;
72	 : 	54;
83	 : 	42;
84	 : 	126;
87	 : 	108;
101	 : 	84;
113	 : 	114;
141	 : 	6;
146	 : 	108;
167	 : 	30;
183	 : 	24;
187	 : 	102;
193	 : 	60;
229	 : 	12;
234	 : 	78;
237	 : 	42;
241	 : 	18;
263	 : 	24;
269	 : 	78;
292	 : 	24;
312	 : 	42;
314	 : 	48;
325	 : 	72;
332	 : 	36;
347	 : 	48;
350	 : 	24;
353	 : 	54;
360	 : 	30;
371	 : 	30;
375	 : 	12;
387	 : 	18;
391	 : 	54;
397	 : 	12;
399	 : 	12;
401	 : 	42;
406	 : 	18;
425	 : 	36;
448	 : 	24;
453	 : 	18;
456	 : 	108;
476	 : 	42;
478	 : 	48;
493	 : 	18;
495	 : 	30;
497	 : 	18;
501	 : 	30;
502	 : 	12;
511	 : 	18;
517	 : 	18;
536	 : 	18;
539	 : 	18;
546	 : 	12;
550	 : 	24;
557	 : 	42;
558	 : 	12;
562	 : 	0;
567	 : 	6;
568	 : 	18;
570	 : 	12;
579	 : 	18;
605	 : 	0;
607	 : 	24;
632	 : 	24;
644	 : 	6;
654	 : 	54;
680	 : 	12;
694	 : 	18;
699	 : 	18;
702	 : 	6;
706	 : 	12;
722	 : 	12;
735	 : 	0;
741	 : 	0;
760	 : 	6;
778	 : 	12;
782	 : 	6;
784	 : 	24;
791	 : 	6;
799	 : 	0;
813	 : 	42;
820	 : 	42;
834	 : 	0;
851	 : 	0;
852	 : 	18;
860	 : 	30;
878	 : 	0;
881	 : 	24;
883	 : 	0;
899	 : 	60;
933	 : 	24;
936	 : 	0;
952	 : 	6;
958	 : 	12;
996	 : 	6;
1034	 : 	6;


Origin 41
20	 : 	126;
31	 : 	96;
41	 : 	0;
57	 : 	108;
65	 : 	48;
72	 : 	60;
83	 : 	18;
84	 : 	114;
87	 : 	114;
101	 : 	72;
113	 : 	66;
141	 : 	6;
146	 : 	108;
167	 : 	18;
183	 : 	18;
187	 : 	132;
193	 : 	30;
229	 : 	6;
234	 : 	66;
237	 : 	72;
241	 : 	12;
263	 : 	36;
269	 : 	66;
292	 : 	36;
312	 : 	42;
314	 : 	102;
325	 : 	126;
332	 : 	12;
347	 : 	66;
350	 : 	30;
353	 : 	54;
360	 : 	30;
371	 : 	30;
375	 : 	24;
387	 : 	66;
391	 : 	48;
397	 : 	24;
399	 : 	24;
401	 : 	48;
406	 : 	6;
425	 : 	48;
448	 : 	18;
453	 : 	12;
456	 : 	150;
476	 : 	36;
478	 : 	72;
493	 : 	12;
495	 : 	0;
497	 : 	0;
501	 : 	24;
502	 : 	6;
511	 : 	18;
517	 : 	42;
536	 : 	72;
539	 : 	60;
546	 : 	12;
550	 : 	12;
557	 : 	90;
558	 : 	24;
562	 : 	42;
567	 : 	24;
568	 : 	30;
570	 : 	6;
579	 : 	42;
605	 : 	6;
607	 : 	102;
632	 : 	54;
644	 : 	18;
654	 : 	24;
680	 : 	18;
694	 : 	42;
699	 : 	42;
702	 : 	24;
706	 : 	18;
722	 : 	36;
735	 : 	18;
741	 : 	6;
760	 : 	6;
778	 : 	0;
782	 : 	12;
784	 : 	48;
791	 : 	0;
799	 : 	6;
813	 : 	24;
820	 : 	60;
834	 : 	6;
851	 : 	24;
852	 : 	24;
860	 : 	48;
878	 : 	36;
881	 : 	24;
883	 : 	18;
899	 : 	66;
933	 : 	18;
936	 : 	6;
952	 : 	6;
958	 : 	24;
996	 : 	24;
1034	 : 	6;


Origin 57
20	 : 	84;
31	 : 	36;
41	 : 	18;
57	 : 	0;
65	 : 	72;
72	 : 	90;
83	 : 	18;
84	 : 	72;
87	 : 	30;
101	 : 	30;
113	 : 	66;
141	 : 	30;
146	 : 	90;
167	 : 	66;
183	 : 	36;
187	 : 	42;
193	 : 	78;
229	 : 	18;
234	 : 	36;
237	 : 	42;
241	 : 	24;
263	 : 	78;
269	 : 	60;
292	 : 	12;
312	 : 	12;
314	 : 	48;
325	 : 	36;
332	 : 	12;
347	 : 	30;
350	 : 	30;
353	 : 	42;
360	 : 	36;
371	 : 	24;
375	 : 	18;
387	 : 	12;
391	 : 	42;
397	 : 	24;
399	 : 	6;
401	 : 	24;
406	 : 	6;
425	 : 	0;
448	 : 	18;
453	 : 	6;
456	 : 	12;
476	 : 	12;
478	 : 	24;
493	 : 	12;
495	 : 	18;
497	 : 	12;
501	 : 	24;
502	 : 	18;
511	 : 	36;
517	 : 	6;
536	 : 	0;
539	 : 	48;
546	 : 	18;
550	 : 	6;
557	 : 	12;
558	 : 	12;
562	 : 	12;
567	 : 	30;
568	 : 	36;
570	 : 	6;
579	 : 	6;
605	 : 	12;
607	 : 	36;
632	 : 	6;
644	 : 	30;
654	 : 	36;
680	 : 	6;
694	 : 	12;
699	 : 	24;
702	 : 	24;
706	 : 	6;
722	 : 	0;
735	 : 	0;
741	 : 	0;
760	 : 	12;
778	 : 	12;
782	 : 	6;
784	 : 	12;
791	 : 	6;
799	 : 	12;
813	 : 	24;
820	 : 	12;
834	 : 	6;
851	 : 	12;
852	 : 	6;
860	 : 	12;
878	 : 	6;
881	 : 	36;
883	 : 	6;
899	 : 	6;
933	 : 	0;
936	 : 	6;
952	 : 	6;
958	 : 	0;
996	 : 	0;
1034	 : 	0;


Origin 65
20	 : 	102;
31	 : 	90;
41	 : 	18;
57	 : 	54;
65	 : 	0;
72	 : 	120;
83	 : 	42;
84	 : 	114;
87	 : 	174;
101	 : 	12;
113	 : 	66;
141	 : 	12;
146	 : 	114;
167	 : 	54;
183	 : 	6;
187	 : 	84;
193	 : 	60;
229	 : 	0;
234	 : 	42;
237	 : 	66;
241	 : 	24;
263	 : 	24;
269	 : 	108;
292	 : 	48;
312	 : 	18;
314	 : 	24;
325	 : 	96;
332	 : 	24;
347	 : 	30;
350	 : 	6;
353	 : 	60;
360	 : 	18;
371	 : 	30;
375	 : 	6;
387	 : 	30;
391	 : 	36;
397	 : 	30;
399	 : 	18;
401	 : 	6;
406	 : 	0;
425	 : 	6;
448	 : 	30;
453	 : 	18;
456	 : 	12;
476	 : 	24;
478	 : 	60;
493	 : 	12;
495	 : 	6;
497	 : 	6;
501	 : 	12;
502	 : 	18;
511	 : 	6;
517	 : 	36;
536	 : 	12;
539	 : 	30;
546	 : 	18;
550	 : 	6;
557	 : 	30;
558	 : 	6;
562	 : 	6;
567	 : 	0;
568	 : 	24;
570	 : 	0;
579	 : 	18;
605	 : 	6;
607	 : 	6;
632	 : 	0;
644	 : 	42;
654	 : 	12;
680	 : 	12;
694	 : 	6;
699	 : 	12;
702	 : 	12;
706	 : 	18;
722	 : 	12;
735	 : 	6;
741	 : 	6;
760	 : 	18;
778	 : 	12;
782	 : 	12;
784	 : 	18;
791	 : 	0;
799	 : 	6;
813	 : 	6;
820	 : 	0;
834	 : 	0;
851	 : 	0;
852	 : 	18;
860	 : 	12;
878	 : 	0;
881	 : 	6;
883	 : 	6;
899	 : 	12;
933	 : 	0;
936	 : 	24;
952	 : 	0;
958	 : 	6;
996	 : 	0;
1034	 : 	6;


Origin 72
20	 : 	138;
31	 : 	48;
41	 : 	36;
57	 : 	48;
65	 : 	96;
72	 : 	0;
83	 : 	54;
84	 : 	120;
87	 : 	234;
101	 : 	48;
113	 : 	84;
141	 : 	54;
146	 : 	300;
167	 : 	60;
183	 : 	84;
187	 : 	72;
193	 : 	204;
229	 : 	78;
234	 : 	102;
237	 : 	162;
241	 : 	60;
263	 : 	150;
269	 : 	144;
292	 : 	42;
312	 : 	30;
314	 : 	60;
325	 : 	78;
332	 : 	48;
347	 : 	84;
350	 : 	42;
353	 : 	114;
360	 : 	54;
371	 : 	12;
375	 : 	66;
387	 : 	30;
391	 : 	90;
397	 : 	102;
399	 : 	54;
401	 : 	90;
406	 : 	18;
425	 : 	84;
448	 : 	60;
453	 : 	36;
456	 : 	54;
476	 : 	72;
478	 : 	60;
493	 : 	30;
495	 : 	36;
497	 : 	6;
501	 : 	90;
502	 : 	96;
511	 : 	60;
517	 : 	18;
536	 : 	36;
539	 : 	78;
546	 : 	42;
550	 : 	72;
557	 : 	42;
558	 : 	6;
562	 : 	30;
567	 : 	48;
568	 : 	48;
570	 : 	0;
579	 : 	6;
605	 : 	18;
607	 : 	6;
632	 : 	6;
644	 : 	36;
654	 : 	24;
680	 : 	24;
694	 : 	18;
699	 : 	18;
702	 : 	84;
706	 : 	6;
722	 : 	30;
735	 : 	24;
741	 : 	66;
760	 : 	24;
778	 : 	30;
782	 : 	12;
784	 : 	6;
791	 : 	24;
799	 : 	12;
813	 : 	60;
820	 : 	12;
834	 : 	42;
851	 : 	42;
852	 : 	42;
860	 : 	12;
878	 : 	12;
881	 : 	12;
883	 : 	18;
899	 : 	30;
933	 : 	0;
936	 : 	18;
952	 : 	6;
958	 : 	12;
996	 : 	6;
1034	 : 	0;


Origin 83
20	 : 	78;
31	 : 	30;
41	 : 	60;
57	 : 	36;
65	 : 	42;
72	 : 	36;
83	 : 	0;
84	 : 	72;
87	 : 	150;
101	 : 	12;
113	 : 	24;
141	 : 	6;
146	 : 	78;
167	 : 	24;
183	 : 	6;
187	 : 	72;
193	 : 	24;
229	 : 	12;
234	 : 	30;
237	 : 	36;
241	 : 	18;
263	 : 	18;
269	 : 	96;
292	 : 	6;
312	 : 	6;
314	 : 	30;
325	 : 	72;
332	 : 	36;
347	 : 	42;
350	 : 	12;
353	 : 	24;
360	 : 	24;
371	 : 	12;
375	 : 	0;
387	 : 	24;
391	 : 	18;
397	 : 	12;
399	 : 	0;
401	 : 	36;
406	 : 	18;
425	 : 	12;
448	 : 	18;
453	 : 	12;
456	 : 	72;
476	 : 	12;
478	 : 	36;
493	 : 	6;
495	 : 	12;
497	 : 	6;
501	 : 	18;
502	 : 	12;
511	 : 	0;
517	 : 	18;
536	 : 	6;
539	 : 	30;
546	 : 	6;
550	 : 	12;
557	 : 	24;
558	 : 	0;
562	 : 	12;
567	 : 	6;
568	 : 	0;
570	 : 	6;
579	 : 	0;
605	 : 	6;
607	 : 	12;
632	 : 	6;
644	 : 	6;
654	 : 	6;
680	 : 	0;
694	 : 	6;
699	 : 	6;
702	 : 	12;
706	 : 	0;
722	 : 	12;
735	 : 	0;
741	 : 	6;
760	 : 	6;
778	 : 	0;
782	 : 	0;
784	 : 	18;
791	 : 	0;
799	 : 	0;
813	 : 	6;
820	 : 	0;
834	 : 	0;
851	 : 	6;
852	 : 	12;
860	 : 	12;
878	 : 	6;
881	 : 	12;
883	 : 	12;
899	 : 	0;
933	 : 	6;
936	 : 	0;
952	 : 	6;
958	 : 	6;
996	 : 	6;
1034	 : 	0;


Origin 84
20	 : 	126;
31	 : 	96;
41	 : 	114;
57	 : 	60;
65	 : 	120;
72	 : 	180;
83	 : 	42;
84	 : 	0;
87	 : 	210;
101	 : 	60;
113	 : 	66;
141	 : 	12;
146	 : 	294;
167	 : 	48;
183	 : 	30;
187	 : 	102;
193	 : 	78;
229	 : 	24;
234	 : 	96;
237	 : 	102;
241	 : 	0;
263	 : 	36;
269	 : 	150;
292	 : 	42;
312	 : 	42;
314	 : 	90;
325	 : 	138;
332	 : 	60;
347	 : 	120;
350	 : 	30;
353	 : 	72;
360	 : 	36;
371	 : 	78;
375	 : 	30;
387	 : 	30;
391	 : 	90;
397	 : 	24;
399	 : 	6;
401	 : 	54;
406	 : 	12;
425	 : 	54;
448	 : 	48;
453	 : 	30;
456	 : 	132;
476	 : 	36;
478	 : 	78;
493	 : 	12;
495	 : 	30;
497	 : 	12;
501	 : 	48;
502	 : 	36;
511	 : 	30;
517	 : 	36;
536	 : 	24;
539	 : 	96;
546	 : 	12;
550	 : 	36;
557	 : 	24;
558	 : 	18;
562	 : 	6;
567	 : 	36;
568	 : 	30;
570	 : 	0;
579	 : 	6;
605	 : 	12;
607	 : 	18;
632	 : 	30;
644	 : 	24;
654	 : 	6;
680	 : 	36;
694	 : 	30;
699	 : 	18;
702	 : 	42;
706	 : 	42;
722	 : 	24;
735	 : 	24;
741	 : 	24;
760	 : 	0;
778	 : 	6;
782	 : 	30;
784	 : 	18;
791	 : 	30;
799	 : 	6;
813	 : 	18;
820	 : 	30;
834	 : 	6;
851	 : 	12;
852	 : 	6;
860	 : 	6;
878	 : 	0;
881	 : 	30;
883	 : 	0;
899	 : 	0;
933	 : 	18;
936	 : 	6;
952	 : 	18;
958	 : 	30;
996	 : 	18;
1034	 : 	6;


Origin 87
20	 : 	174;
31	 : 	114;
41	 : 	72;
57	 : 	36;
65	 : 	180;
72	 : 	294;
83	 : 	114;
84	 : 	156;
87	 : 	0;
101	 : 	36;
113	 : 	222;
141	 : 	60;
146	 : 	276;
167	 : 	138;
183	 : 	42;
187	 : 	156;
193	 : 	288;
229	 : 	78;
234	 : 	144;
237	 : 	180;
241	 : 	30;
263	 : 	72;
269	 : 	312;
292	 : 	114;
312	 : 	60;
314	 : 	84;
325	 : 	102;
332	 : 	102;
347	 : 	132;
350	 : 	72;
353	 : 	210;
360	 : 	120;
371	 : 	48;
375	 : 	72;
387	 : 	36;
391	 : 	174;
397	 : 	36;
399	 : 	54;
401	 : 	24;
406	 : 	18;
425	 : 	108;
448	 : 	72;
453	 : 	42;
456	 : 	126;
476	 : 	78;
478	 : 	180;
493	 : 	48;
495	 : 	30;
497	 : 	18;
501	 : 	66;
502	 : 	36;
511	 : 	42;
517	 : 	48;
536	 : 	48;
539	 : 	186;
546	 : 	12;
550	 : 	66;
557	 : 	36;
558	 : 	30;
562	 : 	6;
567	 : 	24;
568	 : 	12;
570	 : 	18;
579	 : 	18;
605	 : 	6;
607	 : 	30;
632	 : 	18;
644	 : 	78;
654	 : 	24;
680	 : 	42;
694	 : 	12;
699	 : 	36;
702	 : 	30;
706	 : 	36;
722	 : 	24;
735	 : 	18;
741	 : 	12;
760	 : 	6;
778	 : 	12;
782	 : 	24;
784	 : 	18;
791	 : 	12;
799	 : 	0;
813	 : 	18;
820	 : 	0;
834	 : 	0;
851	 : 	0;
852	 : 	18;
860	 : 	18;
878	 : 	0;
881	 : 	30;
883	 : 	12;
899	 : 	6;
933	 : 	18;
936	 : 	6;
952	 : 	18;
958	 : 	18;
996	 : 	0;
1034	 : 	6;


Origin 101
20	 : 	60;
31	 : 	78;
41	 : 	78;
57	 : 	18;
65	 : 	24;
72	 : 	24;
83	 : 	0;
84	 : 	48;
87	 : 	60;
101	 : 	0;
113	 : 	48;
141	 : 	18;
146	 : 	66;
167	 : 	24;
183	 : 	6;
187	 : 	90;
193	 : 	0;
229	 : 	6;
234	 : 	60;
237	 : 	12;
241	 : 	6;
263	 : 	12;
269	 : 	18;
292	 : 	0;
312	 : 	30;
314	 : 	72;
325	 : 	60;
332	 : 	30;
347	 : 	60;
350	 : 	6;
353	 : 	0;
360	 : 	30;
371	 : 	36;
375	 : 	0;
387	 : 	30;
391	 : 	0;
397	 : 	6;
399	 : 	12;
401	 : 	12;
406	 : 	6;
425	 : 	24;
448	 : 	18;
453	 : 	18;
456	 : 	48;
476	 : 	12;
478	 : 	24;
493	 : 	24;
495	 : 	12;
497	 : 	0;
501	 : 	12;
502	 : 	0;
511	 : 	6;
517	 : 	6;
536	 : 	12;
539	 : 	6;
546	 : 	6;
550	 : 	12;
557	 : 	6;
558	 : 	6;
562	 : 	18;
567	 : 	12;
568	 : 	6;
570	 : 	6;
579	 : 	6;
605	 : 	6;
607	 : 	12;
632	 : 	24;
644	 : 	0;
654	 : 	6;
680	 : 	6;
694	 : 	30;
699	 : 	12;
702	 : 	6;
706	 : 	6;
722	 : 	12;
735	 : 	0;
741	 : 	6;
760	 : 	0;
778	 : 	6;
782	 : 	6;
784	 : 	18;
791	 : 	12;
799	 : 	6;
813	 : 	0;
820	 : 	12;
834	 : 	0;
851	 : 	12;
852	 : 	0;
860	 : 	12;
878	 : 	0;
881	 : 	0;
883	 : 	0;
899	 : 	6;
933	 : 	0;
936	 : 	0;
952	 : 	6;
958	 : 	30;
996	 : 	6;
1034	 : 	6;


Origin 113
20	 : 	72;
31	 : 	36;
41	 : 	18;
57	 : 	72;
65	 : 	114;
72	 : 	174;
83	 : 	18;
84	 : 	96;
87	 : 	198;
101	 : 	42;
113	 : 	0;
141	 : 	24;
146	 : 	210;
167	 : 	54;
183	 : 	0;
187	 : 	48;
193	 : 	30;
229	 : 	12;
234	 : 	90;
237	 : 	168;
241	 : 	30;
263	 : 	18;
269	 : 	168;
292	 : 	24;
312	 : 	42;
314	 : 	66;
325	 : 	156;
332	 : 	30;
347	 : 	78;
350	 : 	66;
353	 : 	48;
360	 : 	84;
371	 : 	102;
375	 : 	24;
387	 : 	24;
391	 : 	42;
397	 : 	6;
399	 : 	54;
401	 : 	12;
406	 : 	42;
425	 : 	24;
448	 : 	30;
453	 : 	42;
456	 : 	150;
476	 : 	30;
478	 : 	54;
493	 : 	24;
495	 : 	18;
497	 : 	24;
501	 : 	24;
502	 : 	36;
511	 : 	6;
517	 : 	36;
536	 : 	12;
539	 : 	24;
546	 : 	0;
550	 : 	42;
557	 : 	54;
558	 : 	18;
562	 : 	30;
567	 : 	12;
568	 : 	24;
570	 : 	12;
579	 : 	60;
605	 : 	6;
607	 : 	24;
632	 : 	6;
644	 : 	24;
654	 : 	30;
680	 : 	0;
694	 : 	18;
699	 : 	18;
702	 : 	24;
706	 : 	24;
722	 : 	18;
735	 : 	6;
741	 : 	6;
760	 : 	0;
778	 : 	0;
782	 : 	0;
784	 : 	6;
791	 : 	0;
799	 : 	24;
813	 : 	12;
820	 : 	6;
834	 : 	6;
851	 : 	18;
852	 : 	12;
860	 : 	12;
878	 : 	18;
881	 : 	6;
883	 : 	18;
899	 : 	36;
933	 : 	6;
936	 : 	0;
952	 : 	6;
958	 : 	6;
996	 : 	0;
1034	 : 	6;


Origin 141
20	 : 	6;
31	 : 	12;
41	 : 	18;
57	 : 	24;
65	 : 	12;
72	 : 	24;
83	 : 	12;
84	 : 	18;
87	 : 	54;
101	 : 	0;
113	 : 	12;
141	 : 	0;
146	 : 	30;
167	 : 	60;
183	 : 	12;
187	 : 	12;
193	 : 	54;
229	 : 	6;
234	 : 	0;
237	 : 	18;
241	 : 	12;
263	 : 	24;
269	 : 	24;
292	 : 	48;
312	 : 	18;
314	 : 	12;
325	 : 	6;
332	 : 	12;
347	 : 	6;
350	 : 	6;
353	 : 	30;
360	 : 	24;
371	 : 	0;
375	 : 	12;
387	 : 	6;
391	 : 	12;
397	 : 	60;
399	 : 	18;
401	 : 	30;
406	 : 	18;
425	 : 	0;
448	 : 	12;
453	 : 	6;
456	 : 	18;
476	 : 	6;
478	 : 	0;
493	 : 	18;
495	 : 	12;
497	 : 	6;
501	 : 	12;
502	 : 	12;
511	 : 	18;
517	 : 	0;
536	 : 	6;
539	 : 	12;
546	 : 	18;
550	 : 	6;
557	 : 	12;
558	 : 	12;
562	 : 	6;
567	 : 	6;
568	 : 	30;
570	 : 	6;
579	 : 	0;
605	 : 	18;
607	 : 	24;
632	 : 	0;
644	 : 	18;
654	 : 	0;
680	 : 	6;
694	 : 	6;
699	 : 	0;
702	 : 	24;
706	 : 	6;
722	 : 	6;
735	 : 	6;
741	 : 	12;
760	 : 	0;
778	 : 	0;
782	 : 	0;
784	 : 	12;
791	 : 	12;
799	 : 	0;
813	 : 	12;
820	 : 	0;
834	 : 	0;
851	 : 	12;
852	 : 	6;
860	 : 	0;
878	 : 	0;
881	 : 	0;
883	 : 	6;
899	 : 	12;
933	 : 	0;
936	 : 	0;
952	 : 	0;
958	 : 	0;
996	 : 	0;
1034	 : 	0;


Origin 146
20	 : 	138;
31	 : 	60;
41	 : 	72;
57	 : 	126;
65	 : 	132;
72	 : 	228;
83	 : 	90;
84	 : 	228;
87	 : 	282;
101	 : 	36;
113	 : 	162;
141	 : 	12;
146	 : 	0;
167	 : 	144;
183	 : 	18;
187	 : 	132;
193	 : 	72;
229	 : 	36;
234	 : 	192;
237	 : 	150;
241	 : 	24;
263	 : 	60;
269	 : 	210;
292	 : 	30;
312	 : 	78;
314	 : 	66;
325	 : 	144;
332	 : 	138;
347	 : 	180;
350	 : 	66;
353	 : 	132;
360	 : 	102;
371	 : 	78;
375	 : 	24;
387	 : 	42;
391	 : 	66;
397	 : 	36;
399	 : 	24;
401	 : 	42;
406	 : 	12;
425	 : 	36;
448	 : 	54;
453	 : 	12;
456	 : 	156;
476	 : 	66;
478	 : 	150;
493	 : 	42;
495	 : 	48;
497	 : 	18;
501	 : 	42;
502	 : 	60;
511	 : 	30;
517	 : 	30;
536	 : 	24;
539	 : 	84;
546	 : 	12;
550	 : 	48;
557	 : 	66;
558	 : 	12;
562	 : 	6;
567	 : 	12;
568	 : 	36;
570	 : 	18;
579	 : 	30;
605	 : 	6;
607	 : 	12;
632	 : 	30;
644	 : 	36;
654	 : 	18;
680	 : 	18;
694	 : 	12;
699	 : 	24;
702	 : 	12;
706	 : 	42;
722	 : 	24;
735	 : 	60;
741	 : 	36;
760	 : 	12;
778	 : 	6;
782	 : 	6;
784	 : 	12;
791	 : 	6;
799	 : 	18;
813	 : 	36;
820	 : 	18;
834	 : 	0;
851	 : 	24;
852	 : 	36;
860	 : 	24;
878	 : 	12;
881	 : 	18;
883	 : 	12;
899	 : 	48;
933	 : 	6;
936	 : 	6;
952	 : 	6;
958	 : 	12;
996	 : 	0;
1034	 : 	0;


Origin 167
20	 : 	42;
31	 : 	18;
41	 : 	30;
57	 : 	42;
65	 : 	48;
72	 : 	192;
83	 : 	12;
84	 : 	30;
87	 : 	138;
101	 : 	18;
113	 : 	54;
141	 : 	18;
146	 : 	198;
167	 : 	0;
183	 : 	54;
187	 : 	30;
193	 : 	102;
229	 : 	18;
234	 : 	78;
237	 : 	120;
241	 : 	30;
263	 : 	54;
269	 : 	114;
292	 : 	90;
312	 : 	24;
314	 : 	36;
325	 : 	42;
332	 : 	30;
347	 : 	30;
350	 : 	90;
353	 : 	108;
360	 : 	60;
371	 : 	36;
375	 : 	78;
387	 : 	12;
391	 : 	132;
397	 : 	24;
399	 : 	12;
401	 : 	6;
406	 : 	12;
425	 : 	30;
448	 : 	54;
453	 : 	36;
456	 : 	54;
476	 : 	60;
478	 : 	54;
493	 : 	30;
495	 : 	30;
497	 : 	12;
501	 : 	18;
502	 : 	60;
511	 : 	18;
517	 : 	30;
536	 : 	6;
539	 : 	42;
546	 : 	18;
550	 : 	30;
557	 : 	30;
558	 : 	0;
562	 : 	6;
567	 : 	18;
568	 : 	36;
570	 : 	0;
579	 : 	12;
605	 : 	6;
607	 : 	18;
632	 : 	6;
644	 : 	24;
654	 : 	6;
680	 : 	18;
694	 : 	18;
699	 : 	0;
702	 : 	36;
706	 : 	18;
722	 : 	0;
735	 : 	12;
741	 : 	18;
760	 : 	0;
778	 : 	18;
782	 : 	12;
784	 : 	18;
791	 : 	18;
799	 : 	6;
813	 : 	12;
820	 : 	18;
834	 : 	36;
851	 : 	6;
852	 : 	12;
860	 : 	6;
878	 : 	0;
881	 : 	0;
883	 : 	0;
899	 : 	6;
933	 : 	12;
936	 : 	6;
952	 : 	30;
958	 : 	6;
996	 : 	6;
1034	 : 	6;


Origin 183
20	 : 	6;
31	 : 	12;
41	 : 	30;
57	 : 	48;
65	 : 	24;
72	 : 	114;
83	 : 	18;
84	 : 	30;
87	 : 	144;
101	 : 	0;
113	 : 	24;
141	 : 	12;
146	 : 	132;
167	 : 	48;
183	 : 	0;
187	 : 	18;
193	 : 	18;
229	 : 	24;
234	 : 	24;
237	 : 	54;
241	 : 	36;
263	 : 	36;
269	 : 	60;
292	 : 	36;
312	 : 	24;
314	 : 	12;
325	 : 	12;
332	 : 	0;
347	 : 	24;
350	 : 	18;
353	 : 	30;
360	 : 	30;
371	 : 	12;
375	 : 	90;
387	 : 	18;
391	 : 	48;
397	 : 	36;
399	 : 	24;
401	 : 	42;
406	 : 	18;
425	 : 	12;
448	 : 	30;
453	 : 	30;
456	 : 	18;
476	 : 	0;
478	 : 	12;
493	 : 	12;
495	 : 	30;
497	 : 	12;
501	 : 	30;
502	 : 	24;
511	 : 	18;
517	 : 	6;
536	 : 	6;
539	 : 	60;
546	 : 	12;
550	 : 	12;
557	 : 	6;
558	 : 	6;
562	 : 	0;
567	 : 	12;
568	 : 	36;
570	 : 	12;
579	 : 	36;
605	 : 	6;
607	 : 	6;
632	 : 	0;
644	 : 	18;
654	 : 	12;
680	 : 	6;
694	 : 	0;
699	 : 	12;
702	 : 	24;
706	 : 	24;
722	 : 	0;
735	 : 	6;
741	 : 	6;
760	 : 	6;
778	 : 	18;
782	 : 	12;
784	 : 	12;
791	 : 	0;
799	 : 	0;
813	 : 	6;
820	 : 	0;
834	 : 	6;
851	 : 	6;
852	 : 	24;
860	 : 	18;
878	 : 	0;
881	 : 	30;
883	 : 	0;
899	 : 	0;
933	 : 	0;
936	 : 	0;
952	 : 	0;
958	 : 	6;
996	 : 	12;
1034	 : 	0;


Origin 187
20	 : 	72;
31	 : 	60;
41	 : 	72;
57	 : 	24;
65	 : 	60;
72	 : 	96;
83	 : 	42;
84	 : 	78;
87	 : 	126;
101	 : 	78;
113	 : 	66;
141	 : 	6;
146	 : 	138;
167	 : 	36;
183	 : 	12;
187	 : 	0;
193	 : 	24;
229	 : 	12;
234	 : 	72;
237	 : 	42;
241	 : 	18;
263	 : 	18;
269	 : 	66;
292	 : 	6;
312	 : 	36;
314	 : 	108;
325	 : 	120;
332	 : 	54;
347	 : 	60;
350	 : 	30;
353	 : 	30;
360	 : 	42;
371	 : 	96;
375	 : 	12;
387	 : 	48;
391	 : 	36;
397	 : 	42;
399	 : 	30;
401	 : 	12;
406	 : 	36;
425	 : 	6;
448	 : 	36;
453	 : 	12;
456	 : 	126;
476	 : 	78;
478	 : 	120;
493	 : 	30;
495	 : 	6;
497	 : 	24;
501	 : 	30;
502	 : 	6;
511	 : 	6;
517	 : 	6;
536	 : 	12;
539	 : 	24;
546	 : 	0;
550	 : 	18;
557	 : 	42;
558	 : 	12;
562	 : 	6;
567	 : 	0;
568	 : 	6;
570	 : 	12;
579	 : 	30;
605	 : 	6;
607	 : 	24;
632	 : 	24;
644	 : 	30;
654	 : 	18;
680	 : 	6;
694	 : 	12;
699	 : 	12;
702	 : 	6;
706	 : 	6;
722	 : 	18;
735	 : 	6;
741	 : 	24;
760	 : 	12;
778	 : 	18;
782	 : 	0;
784	 : 	12;
791	 : 	6;
799	 : 	0;
813	 : 	12;
820	 : 	24;
834	 : 	6;
851	 : 	18;
852	 : 	12;
860	 : 	12;
878	 : 	12;
881	 : 	6;
883	 : 	6;
899	 : 	30;
933	 : 	6;
936	 : 	6;
952	 : 	6;
958	 : 	18;
996	 : 	18;
1034	 : 	12;


Origin 193
20	 : 	36;
31	 : 	30;
41	 : 	18;
57	 : 	24;
65	 : 	54;
72	 : 	96;
83	 : 	6;
84	 : 	18;
87	 : 	126;
101	 : 	12;
113	 : 	30;
141	 : 	30;
146	 : 	36;
167	 : 	24;
183	 : 	24;
187	 : 	0;
193	 : 	0;
229	 : 	18;
234	 : 	24;
237	 : 	48;
241	 : 	12;
263	 : 	30;
269	 : 	78;
292	 : 	6;
312	 : 	12;
314	 : 	6;
325	 : 	36;
332	 : 	24;
347	 : 	24;
350	 : 	60;
353	 : 	54;
360	 : 	12;
371	 : 	12;
375	 : 	18;
387	 : 	12;
391	 : 	84;
397	 : 	54;
399	 : 	0;
401	 : 	30;
406	 : 	18;
425	 : 	24;
448	 : 	18;
453	 : 	24;
456	 : 	6;
476	 : 	30;
478	 : 	18;
493	 : 	36;
495	 : 	18;
497	 : 	18;
501	 : 	48;
502	 : 	36;
511	 : 	24;
517	 : 	12;
536	 : 	6;
539	 : 	48;
546	 : 	12;
550	 : 	24;
557	 : 	12;
558	 : 	6;
562	 : 	6;
567	 : 	18;
568	 : 	18;
570	 : 	12;
579	 : 	24;
605	 : 	18;
607	 : 	12;
632	 : 	0;
644	 : 	18;
654	 : 	54;
680	 : 	24;
694	 : 	6;
699	 : 	24;
702	 : 	42;
706	 : 	0;
722	 : 	12;
735	 : 	6;
741	 : 	18;
760	 : 	6;
778	 : 	12;
782	 : 	12;
784	 : 	0;
791	 : 	12;
799	 : 	12;
813	 : 	6;
820	 : 	12;
834	 : 	6;
851	 : 	0;
852	 : 	18;
860	 : 	12;
878	 : 	6;
881	 : 	12;
883	 : 	6;
899	 : 	12;
933	 : 	18;
936	 : 	6;
952	 : 	30;
958	 : 	24;
996	 : 	0;
1034	 : 	0;


Origin 229
20	 : 	24;
31	 : 	42;
41	 : 	0;
57	 : 	48;
65	 : 	18;
72	 : 	114;
83	 : 	6;
84	 : 	30;
87	 : 	162;
101	 : 	6;
113	 : 	48;
141	 : 	18;
146	 : 	126;
167	 : 	30;
183	 : 	12;
187	 : 	42;
193	 : 	24;
229	 : 	0;
234	 : 	36;
237	 : 	72;
241	 : 	18;
263	 : 	18;
269	 : 	54;
292	 : 	42;
312	 : 	18;
314	 : 	12;
325	 : 	66;
332	 : 	24;
347	 : 	24;
350	 : 	0;
353	 : 	42;
360	 : 	0;
371	 : 	6;
375	 : 	12;
387	 : 	24;
391	 : 	42;
397	 : 	6;
399	 : 	6;
401	 : 	12;
406	 : 	18;
425	 : 	12;
448	 : 	18;
453	 : 	24;
456	 : 	66;
476	 : 	42;
478	 : 	54;
493	 : 	0;
495	 : 	12;
497	 : 	12;
501	 : 	24;
502	 : 	6;
511	 : 	18;
517	 : 	0;
536	 : 	12;
539	 : 	18;
546	 : 	0;
550	 : 	0;
557	 : 	18;
558	 : 	12;
562	 : 	6;
567	 : 	6;
568	 : 	12;
570	 : 	6;
579	 : 	12;
605	 : 	0;
607	 : 	18;
632	 : 	18;
644	 : 	42;
654	 : 	6;
680	 : 	12;
694	 : 	12;
699	 : 	0;
702	 : 	6;
706	 : 	12;
722	 : 	18;
735	 : 	0;
741	 : 	18;
760	 : 	0;
778	 : 	6;
782	 : 	0;
784	 : 	6;
791	 : 	6;
799	 : 	0;
813	 : 	0;
820	 : 	0;
834	 : 	6;
851	 : 	12;
852	 : 	6;
860	 : 	6;
878	 : 	0;
881	 : 	0;
883	 : 	6;
899	 : 	6;
933	 : 	6;
936	 : 	12;
952	 : 	6;
958	 : 	0;
996	 : 	0;
1034	 : 	0;


Origin 234
20	 : 	144;
31	 : 	84;
41	 : 	66;
57	 : 	60;
65	 : 	126;
72	 : 	96;
83	 : 	42;
84	 : 	150;
87	 : 	294;
101	 : 	96;
113	 : 	90;
141	 : 	24;
146	 : 	258;
167	 : 	120;
183	 : 	24;
187	 : 	96;
193	 : 	30;
229	 : 	30;
234	 : 	0;
237	 : 	108;
241	 : 	24;
263	 : 	36;
269	 : 	162;
292	 : 	12;
312	 : 	60;
314	 : 	66;
325	 : 	96;
332	 : 	30;
347	 : 	132;
350	 : 	48;
353	 : 	48;
360	 : 	72;
371	 : 	102;
375	 : 	24;
387	 : 	120;
391	 : 	60;
397	 : 	0;
399	 : 	24;
401	 : 	12;
406	 : 	12;
425	 : 	60;
448	 : 	42;
453	 : 	24;
456	 : 	156;
476	 : 	66;
478	 : 	108;
493	 : 	12;
495	 : 	18;
497	 : 	0;
501	 : 	36;
502	 : 	18;
511	 : 	18;
517	 : 	30;
536	 : 	6;
539	 : 	42;
546	 : 	6;
550	 : 	42;
557	 : 	102;
558	 : 	6;
562	 : 	30;
567	 : 	6;
568	 : 	18;
570	 : 	18;
579	 : 	30;
605	 : 	6;
607	 : 	0;
632	 : 	30;
644	 : 	36;
654	 : 	24;
680	 : 	12;
694	 : 	24;
699	 : 	0;
702	 : 	18;
706	 : 	18;
722	 : 	12;
735	 : 	0;
741	 : 	24;
760	 : 	12;
778	 : 	18;
782	 : 	30;
784	 : 	36;
791	 : 	36;
799	 : 	0;
813	 : 	0;
820	 : 	24;
834	 : 	12;
851	 : 	12;
852	 : 	18;
860	 : 	30;
878	 : 	0;
881	 : 	0;
883	 : 	12;
899	 : 	36;
933	 : 	6;
936	 : 	6;
952	 : 	6;
958	 : 	6;
996	 : 	12;
1034	 : 	0;


Origin 237
20	 : 	84;
31	 : 	30;
41	 : 	12;
57	 : 	84;
65	 : 	96;
72	 : 	174;
83	 : 	48;
84	 : 	126;
87	 : 	288;
101	 : 	42;
113	 : 	126;
141	 : 	36;
146	 : 	306;
167	 : 	66;
183	 : 	60;
187	 : 	60;
193	 : 	60;
229	 : 	24;
234	 : 	108;
237	 : 	0;
241	 : 	18;
263	 : 	48;
269	 : 	114;
292	 : 	72;
312	 : 	180;
314	 : 	24;
325	 : 	36;
332	 : 	30;
347	 : 	66;
350	 : 	126;
353	 : 	54;
360	 : 	138;
371	 : 	60;
375	 : 	42;
387	 : 	42;
391	 : 	66;
397	 : 	66;
399	 : 	60;
401	 : 	60;
406	 : 	24;
425	 : 	54;
448	 : 	96;
453	 : 	120;
456	 : 	78;
476	 : 	90;
478	 : 	114;
493	 : 	30;
495	 : 	42;
497	 : 	24;
501	 : 	36;
502	 : 	18;
511	 : 	36;
517	 : 	72;
536	 : 	78;
539	 : 	162;
546	 : 	12;
550	 : 	36;
557	 : 	78;
558	 : 	30;
562	 : 	18;
567	 : 	24;
568	 : 	42;
570	 : 	30;
579	 : 	18;
605	 : 	36;
607	 : 	54;
632	 : 	30;
644	 : 	60;
654	 : 	24;
680	 : 	60;
694	 : 	6;
699	 : 	42;
702	 : 	30;
706	 : 	48;
722	 : 	42;
735	 : 	6;
741	 : 	12;
760	 : 	6;
778	 : 	18;
782	 : 	12;
784	 : 	36;
791	 : 	0;
799	 : 	6;
813	 : 	12;
820	 : 	12;
834	 : 	6;
851	 : 	6;
852	 : 	18;
860	 : 	6;
878	 : 	0;
881	 : 	24;
883	 : 	18;
899	 : 	54;
933	 : 	18;
936	 : 	36;
952	 : 	12;
958	 : 	36;
996	 : 	0;
1034	 : 	12;


Origin 241
20	 : 	24;
31	 : 	12;
41	 : 	30;
57	 : 	12;
65	 : 	18;
72	 : 	48;
83	 : 	0;
84	 : 	24;
87	 : 	78;
101	 : 	6;
113	 : 	12;
141	 : 	12;
146	 : 	84;
167	 : 	24;
183	 : 	24;
187	 : 	6;
193	 : 	102;
229	 : 	18;
234	 : 	30;
237	 : 	48;
241	 : 	0;
263	 : 	30;
269	 : 	42;
292	 : 	54;
312	 : 	24;
314	 : 	6;
325	 : 	18;
332	 : 	18;
347	 : 	18;
350	 : 	12;
353	 : 	18;
360	 : 	18;
371	 : 	12;
375	 : 	48;
387	 : 	6;
391	 : 	66;
397	 : 	54;
399	 : 	12;
401	 : 	60;
406	 : 	0;
425	 : 	6;
448	 : 	30;
453	 : 	6;
456	 : 	12;
476	 : 	6;
478	 : 	12;
493	 : 	30;
495	 : 	12;
497	 : 	48;
501	 : 	24;
502	 : 	48;
511	 : 	36;
517	 : 	18;
536	 : 	18;
539	 : 	48;
546	 : 	30;
550	 : 	12;
557	 : 	0;
558	 : 	48;
562	 : 	0;
567	 : 	36;
568	 : 	36;
570	 : 	24;
579	 : 	18;
605	 : 	18;
607	 : 	12;
632	 : 	6;
644	 : 	6;
654	 : 	6;
680	 : 	6;
694	 : 	0;
699	 : 	12;
702	 : 	42;
706	 : 	6;
722	 : 	24;
735	 : 	0;
741	 : 	18;
760	 : 	6;
778	 : 	18;
782	 : 	18;
784	 : 	0;
791	 : 	6;
799	 : 	6;
813	 : 	6;
820	 : 	12;
834	 : 	6;
851	 : 	6;
852	 : 	18;
860	 : 	12;
878	 : 	0;
881	 : 	18;
883	 : 	12;
899	 : 	18;
933	 : 	12;
936	 : 	12;
952	 : 	24;
958	 : 	0;
996	 : 	0;
1034	 : 	6;


Origin 263
20	 : 	30;
31	 : 	18;
41	 : 	12;
57	 : 	42;
65	 : 	24;
72	 : 	90;
83	 : 	12;
84	 : 	42;
87	 : 	174;
101	 : 	18;
113	 : 	24;
141	 : 	24;
146	 : 	96;
167	 : 	78;
183	 : 	48;
187	 : 	18;
193	 : 	66;
229	 : 	54;
234	 : 	12;
237	 : 	90;
241	 : 	30;
263	 : 	0;
269	 : 	36;
292	 : 	30;
312	 : 	78;
314	 : 	12;
325	 : 	24;
332	 : 	36;
347	 : 	6;
350	 : 	24;
353	 : 	42;
360	 : 	18;
371	 : 	18;
375	 : 	72;
387	 : 	12;
391	 : 	78;
397	 : 	78;
399	 : 	42;
401	 : 	96;
406	 : 	0;
425	 : 	24;
448	 : 	42;
453	 : 	30;
456	 : 	42;
476	 : 	24;
478	 : 	48;
493	 : 	66;
495	 : 	30;
497	 : 	0;
501	 : 	18;
502	 : 	48;
511	 : 	36;
517	 : 	24;
536	 : 	6;
539	 : 	36;
546	 : 	0;
550	 : 	42;
557	 : 	12;
558	 : 	18;
562	 : 	6;
567	 : 	30;
568	 : 	24;
570	 : 	12;
579	 : 	6;
605	 : 	18;
607	 : 	12;
632	 : 	6;
644	 : 	30;
654	 : 	30;
680	 : 	12;
694	 : 	6;
699	 : 	12;
702	 : 	54;
706	 : 	12;
722	 : 	18;
735	 : 	6;
741	 : 	12;
760	 : 	0;
778	 : 	24;
782	 : 	12;
784	 : 	12;
791	 : 	6;
799	 : 	12;
813	 : 	0;
820	 : 	6;
834	 : 	12;
851	 : 	24;
852	 : 	6;
860	 : 	6;
878	 : 	12;
881	 : 	12;
883	 : 	6;
899	 : 	6;
933	 : 	18;
936	 : 	0;
952	 : 	12;
958	 : 	6;
996	 : 	0;
1034	 : 	0;


Origin 269
20	 : 	84;
31	 : 	84;
41	 : 	36;
57	 : 	114;
65	 : 	120;
72	 : 	192;
83	 : 	48;
84	 : 	156;
87	 : 	366;
101	 : 	36;
113	 : 	162;
141	 : 	42;
146	 : 	312;
167	 : 	132;
183	 : 	42;
187	 : 	102;
193	 : 	78;
229	 : 	36;
234	 : 	144;
237	 : 	90;
241	 : 	18;
263	 : 	18;
269	 : 	0;
292	 : 	30;
312	 : 	156;
314	 : 	66;
325	 : 	108;
332	 : 	42;
347	 : 	144;
350	 : 	66;
353	 : 	48;
360	 : 	132;
371	 : 	30;
375	 : 	6;
387	 : 	30;
391	 : 	54;
397	 : 	48;
399	 : 	54;
401	 : 	24;
406	 : 	36;
425	 : 	48;
448	 : 	36;
453	 : 	30;
456	 : 	144;
476	 : 	36;
478	 : 	96;
493	 : 	18;
495	 : 	12;
497	 : 	30;
501	 : 	42;
502	 : 	48;
511	 : 	12;
517	 : 	36;
536	 : 	24;
539	 : 	54;
546	 : 	24;
550	 : 	72;
557	 : 	102;
558	 : 	18;
562	 : 	24;
567	 : 	18;
568	 : 	24;
570	 : 	6;
579	 : 	24;
605	 : 	12;
607	 : 	18;
632	 : 	24;
644	 : 	24;
654	 : 	18;
680	 : 	36;
694	 : 	36;
699	 : 	6;
702	 : 	36;
706	 : 	18;
722	 : 	42;
735	 : 	18;
741	 : 	12;
760	 : 	30;
778	 : 	6;
782	 : 	30;
784	 : 	36;
791	 : 	0;
799	 : 	18;
813	 : 	18;
820	 : 	12;
834	 : 	12;
851	 : 	6;
852	 : 	18;
860	 : 	12;
878	 : 	6;
881	 : 	6;
883	 : 	6;
899	 : 	24;
933	 : 	0;
936	 : 	12;
952	 : 	6;
958	 : 	0;
996	 : 	0;
1034	 : 	6;


Origin 292
20	 : 	48;
31	 : 	36;
41	 : 	36;
57	 : 	18;
65	 : 	24;
72	 : 	78;
83	 : 	12;
84	 : 	42;
87	 : 	132;
101	 : 	12;
113	 : 	18;
141	 : 	42;
146	 : 	48;
167	 : 	30;
183	 : 	48;
187	 : 	48;
193	 : 	6;
229	 : 	36;
234	 : 	36;
237	 : 	48;
241	 : 	24;
263	 : 	60;
269	 : 	48;
292	 : 	0;
312	 : 	0;
314	 : 	0;
325	 : 	18;
332	 : 	12;
347	 : 	36;
350	 : 	60;
353	 : 	66;
360	 : 	18;
371	 : 	12;
375	 : 	66;
387	 : 	18;
391	 : 	150;
397	 : 	84;
399	 : 	6;
401	 : 	24;
406	 : 	36;
425	 : 	12;
448	 : 	42;
453	 : 	42;
456	 : 	18;
476	 : 	18;
478	 : 	42;
493	 : 	66;
495	 : 	48;
497	 : 	42;
501	 : 	78;
502	 : 	66;
511	 : 	36;
517	 : 	48;
536	 : 	24;
539	 : 	114;
546	 : 	36;
550	 : 	54;
557	 : 	30;
558	 : 	24;
562	 : 	12;
567	 : 	30;
568	 : 	42;
570	 : 	18;
579	 : 	36;
605	 : 	12;
607	 : 	42;
632	 : 	12;
644	 : 	66;
654	 : 	60;
680	 : 	30;
694	 : 	18;
699	 : 	36;
702	 : 	42;
706	 : 	24;
722	 : 	12;
735	 : 	30;
741	 : 	18;
760	 : 	6;
778	 : 	24;
782	 : 	6;
784	 : 	24;
791	 : 	24;
799	 : 	6;
813	 : 	36;
820	 : 	24;
834	 : 	24;
851	 : 	66;
852	 : 	30;
860	 : 	36;
878	 : 	0;
881	 : 	36;
883	 : 	12;
899	 : 	24;
933	 : 	42;
936	 : 	12;
952	 : 	6;
958	 : 	24;
996	 : 	6;
1034	 : 	18;


Origin 312
20	 : 	36;
31	 : 	60;
41	 : 	96;
57	 : 	42;
65	 : 	66;
72	 : 	114;
83	 : 	60;
84	 : 	78;
87	 : 	246;
101	 : 	60;
113	 : 	108;
141	 : 	24;
146	 : 	252;
167	 : 	66;
183	 : 	30;
187	 : 	66;
193	 : 	6;
229	 : 	24;
234	 : 	102;
237	 : 	180;
241	 : 	24;
263	 : 	48;
269	 : 	186;
292	 : 	30;
312	 : 	0;
314	 : 	54;
325	 : 	90;
332	 : 	72;
347	 : 	54;
350	 : 	120;
353	 : 	90;
360	 : 	12;
371	 : 	60;
375	 : 	18;
387	 : 	66;
391	 : 	168;
397	 : 	48;
399	 : 	6;
401	 : 	42;
406	 : 	12;
425	 : 	54;
448	 : 	60;
453	 : 	54;
456	 : 	102;
476	 : 	132;
478	 : 	78;
493	 : 	84;
495	 : 	90;
497	 : 	12;
501	 : 	48;
502	 : 	48;
511	 : 	6;
517	 : 	30;
536	 : 	78;
539	 : 	108;
546	 : 	6;
550	 : 	90;
557	 : 	48;
558	 : 	12;
562	 : 	42;
567	 : 	18;
568	 : 	12;
570	 : 	60;
579	 : 	36;
605	 : 	12;
607	 : 	42;
632	 : 	36;
644	 : 	18;
654	 : 	108;
680	 : 	6;
694	 : 	48;
699	 : 	72;
702	 : 	18;
706	 : 	12;
722	 : 	42;
735	 : 	18;
741	 : 	24;
760	 : 	18;
778	 : 	0;
782	 : 	42;
784	 : 	36;
791	 : 	24;
799	 : 	18;
813	 : 	48;
820	 : 	48;
834	 : 	6;
851	 : 	24;
852	 : 	36;
860	 : 	36;
878	 : 	30;
881	 : 	54;
883	 : 	48;
899	 : 	42;
933	 : 	54;
936	 : 	6;
952	 : 	6;
958	 : 	36;
996	 : 	6;
1034	 : 	12;


Origin 314
20	 : 	24;
31	 : 	30;
41	 : 	36;
57	 : 	6;
65	 : 	30;
72	 : 	48;
83	 : 	6;
84	 : 	54;
87	 : 	18;
101	 : 	60;
113	 : 	42;
141	 : 	6;
146	 : 	36;
167	 : 	12;
183	 : 	6;
187	 : 	30;
193	 : 	0;
229	 : 	12;
234	 : 	84;
237	 : 	6;
241	 : 	0;
263	 : 	12;
269	 : 	12;
292	 : 	12;
312	 : 	18;
314	 : 	0;
325	 : 	90;
332	 : 	18;
347	 : 	48;
350	 : 	6;
353	 : 	18;
360	 : 	6;
371	 : 	42;
375	 : 	0;
387	 : 	36;
391	 : 	0;
397	 : 	0;
399	 : 	0;
401	 : 	12;
406	 : 	0;
425	 : 	12;
448	 : 	24;
453	 : 	6;
456	 : 	96;
476	 : 	54;
478	 : 	108;