<NUMBER OF ZONES> 8
<TOTAL OD FLOW> 3332.7936017057564
<END OF METADATA>

Origin 1
1	 : 	0;
4	 : 	20.570231943188233;
10	 : 	210.1476386257691;
17	 : 	0.0;
20	 : 	243.1515230697118;
21	 : 	0.0;
25	 : 	0.0;
26	 : 	0.0;


Origin 4
1	 : 	0.0;
4	 : 	0;
10	 : 	199.344198677723;
17	 : 	0.0;
20	 : 	312.82321047405367;
21	 : 	0.0;
25	 : 	0.0;
26	 : 	0.0;


Origin 10
1	 : 	713.8303843105043;
4	 : 	0.0;
10	 : 	0;
17	 : 	270.09812289878784;
20	 : 	0.0;
21	 : 	0.0;
25	 : 	0.0;
26	 : 	19.700357074140854;


Origin 17
1	 : 	0.0;
4	 : 	86.38226293939343;
10	 : 	0.0;
17	 : 	0;
20	 : 	0.0;
21	 : 	185.48654140456352;
25	 : 	140.49446445293017;
26	 : 	0.0;


Origin 20
1	 : 	0.0;
4	 : 	156.23682788566992;
10	 : 	0.0;
17	 : 	0.0;
20	 : 	0;
21	 : 	239.3545072995973;
25	 : 	162.77574191859844;
26	 : 	0.0;


Origin 21
1	 : 	0.0;
4	 : 	86.38226293939343;
10	 : 	0.0;
17	 : 	0.0;
20	 : 	0.0;
21	 : 	0;
25	 : 	140.49446445293017;
26	 : 	0.0;


Origin 25
1	 : 	0.0;
4	 : 	0.0;
10	 : 	52.218585965731336;
17	 : 	0.0;
20	 : 	0.0;
21	 : 	0.0;
25	 : 	0;
26	 : 	41.08368940733886;


Origin 26
1	 : 	0.0;
4	 : 	0.0;
10	 : 	52.218585965731336;
17	 : 	0.0;
20	 : 	0.0;
21	 : 	0.0;
25	 : 	0.0;
26	 : 	0;


