<NUMBER OF ZONES> 2
<NUMBER OF NODES> 4
<FIRST THRU NODE> 1
<NUMBER OF LINKS> 6
<END OF METADATA>



~ 	Init node 	Term node 	Capacity 	Length 	Free Flow Time 	B	Power	Speed limit 	Toll 	Type	;
	1	3	100	15	1	70.00	1	0	0	1	;
	1	4	100000	15	45	70.00	1	0	0	1	;
	3	2	100000	15	45	70.00	1	0	0	1	;
	3	4	100000	15	0.00001	70.00	1	0	0	1	;
	4	2	100	15	1	70.00	1	0	0	1	;