<NUMBER OF ZONES> 8
<NUMBER OF ZONES> 8
<FIRST THRU NODE> 1
<NUMBER OF LINKS> 90
<NUMBER OF ZONES> 8
<END OF METADATA>


~  Init node  Term node  Capacity  Length  Free Flow Time  B  Power  Speed limit  Toll  Type  ;
	6	9	324.990579	1.081020	0.041698	0.000000	25.925053	0.000000	0.000000	0.000000	;
	14	17	249.840475	2.093306	0.065055	0.000000	32.177243	0.000000	0.000000	0.000000	;
	18	19	428.862643	1.018079	0.050616	0.000000	20.113590	0.000000	0.000000	0.000000	;
	6	7	421.120344	1.164845	0.045368	0.000000	25.675412	0.000000	0.000000	0.000000	;
	10	7	221.977744	1.204656	0.046638	0.000000	25.830112	0.000000	0.000000	0.000000	;
	7	6	371.396534	1.125775	0.044323	0.000000	25.399155	0.000000	0.000000	0.000000	;
	21	12	326.670110	1.494873	0.060470	0.000000	24.720786	0.000000	0.000000	0.000000	;
	23	25	376.900065	1.619405	0.083072	0.000000	19.493980	0.000000	0.000000	0.000000	;
	3	2	292.362089	1.153868	0.044608	0.000000	25.866650	0.000000	0.000000	0.000000	;
	9	14	336.569004	1.145213	0.051699	0.000000	22.151766	0.000000	0.000000	0.000000	;
	7	10	305.461417	1.067714	0.041166	0.000000	25.936580	0.000000	0.000000	0.000000	;
	4	5	320.955507	0.938231	0.037396	0.000000	25.089273	0.000000	0.000000	0.000000	;
	10	13	240.291227	0.947603	0.042212	0.000000	22.448477	0.000000	0.000000	0.000000	;
	7	5	224.338340	0.744877	0.028277	0.000000	26.342503	0.000000	0.000000	0.000000	;
	14	15	271.222314	2.261982	0.075525	0.000000	29.950161	0.000000	0.000000	0.000000	;
	12	11	314.139179	0.885632	0.034928	0.000000	25.355870	0.000000	0.000000	0.000000	;
	15	14	409.699729	2.017346	0.100306	0.000000	20.112018	0.000000	0.000000	0.000000	;
	13	10	368.864320	1.769943	0.076436	0.000000	23.155766	0.000000	0.000000	0.000000	;
	12	22	280.463102	1.846956	0.114528	0.000000	16.126642	0.000000	0.000000	0.000000	;
	17	18	541.692530	3.348702	0.103472	0.000000	32.363481	0.000000	0.000000	0.000000	;
	18	25	250.094336	0.817230	0.050543	0.000000	16.169156	0.000000	0.000000	0.000000	;
	22	12	299.395771	1.844892	0.107763	0.000000	17.119983	0.000000	0.000000	0.000000	;
	3	1	260.880561	1.092569	0.042159	0.000000	25.915274	0.000000	0.000000	0.000000	;
	15	16	326.537691	1.791406	0.090401	0.000000	19.816195	0.000000	0.000000	0.000000	;
	22	23	336.591094	2.519106	0.127741	0.000000	19.720423	0.000000	0.000000	0.000000	;
	23	22	332.149082	2.688223	0.125436	0.000000	21.431049	0.000000	0.000000	0.000000	;
	2	1	412.618215	2.606705	0.103493	0.000000	25.187307	0.000000	0.000000	0.000000	;
	11	10	325.812359	0.910668	0.034894	0.000000	26.098095	0.000000	0.000000	0.000000	;
	12	13	299.502683	0.762076	0.050919	0.000000	14.966573	0.000000	0.000000	0.000000	;
	18	16	431.265903	1.942538	0.081775	0.000000	23.754731	0.000000	0.000000	0.000000	;
	23	21	353.753372	2.753077	0.115295	0.000000	23.878602	0.000000	0.000000	0.000000	;
	17	15	384.803883	0.698254	0.033563	0.000000	20.803998	0.000000	0.000000	0.000000	;
	10	9	410.724459	0.953938	0.036622	0.000000	26.048286	0.000000	0.000000	0.000000	;
	5	4	249.100528	0.922712	0.036175	0.000000	25.506707	0.000000	0.000000	0.000000	;
	19	28	350.673305	1.265766	0.062797	0.000000	20.156533	0.000000	0.000000	0.000000	;
	20	5	191.961711	1.263008	0.050465	0.000000	25.027594	0.000000	0.000000	0.000000	;
	23	24	404.197679	0.850050	0.043626	0.000000	19.485095	0.000000	0.000000	0.000000	;
	3	5	259.760494	1.326122	0.051492	0.000000	25.754079	0.000000	0.000000	0.000000	;
	7	8	401.518612	0.865885	0.033106	0.000000	26.154888	0.000000	0.000000	0.000000	;
	5	7	320.534090	1.208047	0.046773	0.000000	25.827782	0.000000	0.000000	0.000000	;
	19	27	277.517036	0.767828	0.043684	0.000000	17.576863	0.000000	0.000000	0.000000	;
	24	25	366.741282	0.875789	0.043135	0.000000	20.303386	0.000000	0.000000	0.000000	;
	6	20	193.819231	1.237842	0.039425	0.000000	31.397164	0.000000	0.000000	0.000000	;
	5	20	308.302583	1.027410	0.040433	0.000000	25.410238	0.000000	0.000000	0.000000	;
	27	26	254.401406	0.970033	0.048104	0.000000	20.165290	0.000000	0.000000	0.000000	;
	1	3	297.816080	2.726370	0.107478	0.000000	25.366788	0.000000	0.000000	0.000000	;
	4	8	291.850234	0.919266	0.036637	0.000000	25.091115	0.000000	0.000000	0.000000	;
	14	9	325.527705	1.172040	0.060660	0.000000	19.321467	0.000000	0.000000	0.000000	;
	1	20	262.815636	2.378272	0.071569	0.000000	33.230329	0.000000	0.000000	0.000000	;
	25	23	342.464011	1.617163	0.084642	0.000000	19.105926	0.000000	0.000000	0.000000	;
	16	17	552.770242	1.623508	0.071176	0.000000	22.809651	0.000000	0.000000	0.000000	;
	13	12	436.429764	0.959687	0.043994	0.000000	21.814025	0.000000	0.000000	0.000000	;
	25	18	265.803518	0.715996	0.047475	0.000000	15.081457	0.000000	0.000000	0.000000	;
	21	23	401.086434	2.752981	0.113917	0.000000	24.166546	0.000000	0.000000	0.000000	;
	20	1	235.640988	2.381822	0.076355	0.000000	31.194037	0.000000	0.000000	0.000000	;
	27	19	346.512856	0.739975	0.046903	0.000000	15.776594	0.000000	0.000000	0.000000	;
	18	17	578.528404	3.135876	0.122191	0.000000	25.663680	0.000000	0.000000	0.000000	;
	2	3	234.650052	1.202476	0.047330	0.000000	25.406040	0.000000	0.000000	0.000000	;
	8	7	314.127801	1.137240	0.043867	0.000000	25.924436	0.000000	0.000000	0.000000	;
	4	2	357.774446	0.788781	0.030820	0.000000	25.592743	0.000000	0.000000	0.000000	;
	9	6	301.223039	1.360349	0.047555	0.000000	28.605963	0.000000	0.000000	0.000000	;
	5	3	303.224277	1.064053	0.041020	0.000000	25.939803	0.000000	0.000000	0.000000	;
	11	8	402.236224	1.313279	0.050842	0.000000	25.830349	0.000000	0.000000	0.000000	;
	25	24	341.960303	0.873769	0.043913	0.000000	19.897544	0.000000	0.000000	0.000000	;
	24	16	401.305861	1.262974	0.057016	0.000000	22.151341	0.000000	0.000000	0.000000	;
	21	22	333.679304	0.731231	0.041711	0.000000	17.531044	0.000000	0.000000	0.000000	;
	20	6	210.831411	0.886055	0.036532	0.000000	24.253905	0.000000	0.000000	0.000000	;
	28	25	212.168378	0.607568	0.034827	0.000000	17.445372	0.000000	0.000000	0.000000	;
	2	4	298.016629	0.606415	0.023531	0.000000	25.770997	0.000000	0.000000	0.000000	;
	8	4	388.938770	1.286408	0.051995	0.000000	24.741104	0.000000	0.000000	0.000000	;
	10	11	304.239337	1.005491	0.038681	0.000000	25.994539	0.000000	0.000000	0.000000	;
	14	13	455.561935	1.335792	0.081149	0.000000	16.460914	0.000000	0.000000	0.000000	;
	17	16	318.857435	1.576321	0.072975	0.000000	21.600782	0.000000	0.000000	0.000000	;
	16	24	408.771937	1.264054	0.063994	0.000000	19.752719	0.000000	0.000000	0.000000	;
	28	19	339.766720	1.455808	0.073784	0.000000	19.730600	0.000000	0.000000	0.000000	;
	1	2	308.920032	2.216798	0.087100	0.000000	25.451101	0.000000	0.000000	0.000000	;
	24	23	383.129146	1.250905	0.071003	0.000000	17.617603	0.000000	0.000000	0.000000	;
	17	14	280.683074	1.840088	0.088432	0.000000	20.807901	0.000000	0.000000	0.000000	;
	16	18	340.578908	1.822152	0.073766	0.000000	24.701663	0.000000	0.000000	0.000000	;
	22	21	427.632148	0.733136	0.048183	0.000000	15.215662	0.000000	0.000000	0.000000	;
	12	21	386.887916	1.496153	0.060529	0.000000	24.717899	0.000000	0.000000	0.000000	;
	8	11	391.892156	1.411427	0.054995	0.000000	25.664574	0.000000	0.000000	0.000000	;
	19	18	357.375678	0.926481	0.043134	0.000000	21.479205	0.000000	0.000000	0.000000	;
	9	10	597.996248	1.250608	0.049293	0.000000	25.371143	0.000000	0.000000	0.000000	;
	11	12	356.078309	1.112252	0.057534	0.000000	19.332035	0.000000	0.000000	0.000000	;
	25	28	199.516459	0.614550	0.034851	0.000000	17.633713	0.000000	0.000000	0.000000	;
	15	17	415.184770	0.696967	0.037196	0.000000	18.737678	0.000000	0.000000	0.000000	;
	26	27	212.630280	0.996568	0.049188	0.000000	20.260505	0.000000	0.000000	0.000000	;
	13	14	328.699472	0.998580	0.057685	0.000000	17.311000	0.000000	0.000000	0.000000	;
	16	15	526.498127	1.789556	0.076490	0.000000	23.395835	0.000000	0.000000	0.000000	;
