<NUMBER OF ZONES> 2
<NUMBER OF NODES> 4499
<FIRST THRU NODE> 1
<NUMBER OF LINKS> 6084
<END OF METADATA>
~  Init node  Term node  Capacity  Length  Free Flow Time  B  Power  Speed limit  Toll  Type  ;
	2925	502	267.644926	66.911232	0.373629	0.000000	25.000000	0.000000	0.000000	0.000000	;
	3591	3587	351.318774	153.457177	0.065165	0.000000	10.000000	0.000000	0.000000	0.000000	;
	1542	1545	705.516290	176.379072	0.120159	0.000000	21.193571	0.000000	0.000000	0.000000	;
	1229	258	288.756119	72.189030	0.207788	0.000000	15.000000	0.000000	0.000000	0.000000	;
	1820	1259	151.225609	93.598691	0.192310	0.000000	18.000000	0.000000	0.000000	0.000000	;
	4042	2215	89.999591	22.499898	0.666670	0.000000	15.000000	0.000000	0.000000	0.000000	;
	3617	3620	84.217467	28.072489	1.031081	0.000000	28.945000	0.000000	0.000000	0.000000	;
	620	3967	463.186986	154.395662	0.023038	0.000000	3.557000	0.000000	0.000000	0.000000	;
	2013	386	991.025082	247.756270	0.080272	0.000000	19.888000	0.000000	0.000000	0.000000	;
	1463	993	318.557819	79.639455	0.313915	0.000000	25.000000	0.000000	0.000000	0.000000	;
	2041	1269	237.497544	80.918452	0.308953	0.000000	25.000000	0.000000	0.000000	0.000000	;
	3077	3071	821.421018	288.632871	0.131655	0.000000	38.000000	0.000000	0.000000	0.000000	;
	2137	529	237.089567	80.156133	0.399221	0.000000	32.000000	0.000000	0.000000	0.000000	;
	3534	4407	317.317105	79.329276	0.260980	0.000000	20.703333	0.000000	0.000000	0.000000	;
	2362	694	321.545510	46.985313	0.425665	0.000000	20.000000	0.000000	0.000000	0.000000	;
	2168	2213	330.290530	82.572632	0.207575	0.000000	17.140000	0.000000	0.000000	0.000000	;
	705	2148	235.443700	78.481233	0.318547	0.000000	25.000000	0.000000	0.000000	0.000000	;
	2790	3742	237.187400	79.062467	0.176654	0.000000	13.966714	0.000000	0.000000	0.000000	;
	2882	3871	554.789753	277.394876	0.078100	0.000000	21.664667	0.000000	0.000000	0.000000	;
	3804	1140	129.134454	43.044818	0.281559	0.000000	12.119667	0.000000	0.000000	0.000000	;
	134	133	346.028940	86.743051	0.288208	0.000000	25.000000	0.000000	0.000000	0.000000	;
	1426	1428	337.070078	165.120435	0.151405	0.000000	25.000000	0.000000	0.000000	0.000000	;
	4325	3509	40.170815	13.390272	1.116781	0.000000	14.954000	0.000000	0.000000	0.000000	;
	822	3071	258.885921	135.488142	0.110711	0.000000	15.000000	0.000000	0.000000	0.000000	;
	4099	4046	297.065330	74.266333	0.312032	0.000000	23.173500	0.000000	0.000000	0.000000	;
	2936	1928	257.238422	85.746141	0.096599	0.000000	8.283000	0.000000	0.000000	0.000000	;
	754	441	158.655372	79.327686	0.189089	0.000000	15.000000	0.000000	0.000000	0.000000	;
	3740	1569	233.677275	216.668539	0.036923	0.000000	8.000000	0.000000	0.000000	0.000000	;
	3587	421	257.604422	85.868141	0.114563	0.000000	9.837333	0.000000	0.000000	0.000000	;
	2008	2005	303.671841	75.917960	0.329303	0.000000	25.000000	0.000000	0.000000	0.000000	;
	2608	2610	237.263645	79.087882	0.205477	0.000000	16.250778	0.000000	0.000000	0.000000	;
	4079	1526	185.601605	92.800802	0.114428	0.000000	10.619000	0.000000	0.000000	0.000000	;
	1230	2566	362.454702	120.818234	0.248307	0.000000	30.000000	0.000000	0.000000	0.000000	;
	1518	553	1094.730670	273.682668	0.091347	0.000000	25.000000	0.000000	0.000000	0.000000	;
	540	1669	1095.048160	273.762040	0.091320	0.000000	25.000000	0.000000	0.000000	0.000000	;
	4273	2022	588.786439	147.196610	0.169841	0.000000	25.000000	0.000000	0.000000	0.000000	;
	2854	2429	263.272924	87.757641	0.195659	0.000000	17.170600	0.000000	0.000000	0.000000	;
	1886	244	38.974897	9.743724	1.539452	0.000000	15.000000	0.000000	0.000000	0.000000	;
	3610	2179	191.574462	95.787231	0.156597	0.000000	15.000000	0.000000	0.000000	0.000000	;
	2335	2863	467.477241	429.672783	0.046547	0.000000	20.000000	0.000000	0.000000	0.000000	;
	2349	3963	261.937241	87.312414	0.217468	0.000000	18.987667	0.000000	0.000000	0.000000	;
	3024	3040	300.432431	75.108108	0.332854	0.000000	25.000000	0.000000	0.000000	0.000000	;
	2256	2426	315.662395	78.915599	0.316794	0.000000	25.000000	0.000000	0.000000	0.000000	;
	325	3926	974.687398	324.895799	0.036907	0.000000	11.991000	0.000000	0.000000	0.000000	;
	1866	1856	214.878736	53.719684	0.465379	0.000000	25.000000	0.000000	0.000000	0.000000	;
	1061	2631	294.980138	98.326713	0.100949	0.000000	9.926000	0.000000	0.000000	0.000000	;
	1940	3518	257.936250	85.978750	0.272632	0.000000	23.440591	0.000000	0.000000	0.000000	;
	1545	1290	198.127677	99.063838	0.151418	0.000000	15.000000	0.000000	0.000000	0.000000	;
	4335	2438	45.049839	15.016613	1.664823	0.000000	25.000000	0.000000	0.000000	0.000000	;
	1664	4485	241.411601	80.470534	0.266280	0.000000	21.427714	0.000000	0.000000	0.000000	;
	437	1925	107.852786	26.963197	0.927190	0.000000	25.000000	0.000000	0.000000	0.000000	;
	1855	1305	242.483527	80.827842	0.247965	0.000000	20.042500	0.000000	0.000000	0.000000	;
	1837	2942	451.911883	150.637294	0.165962	0.000000	25.000000	0.000000	0.000000	0.000000	;
	3719	2754	780.093405	195.023351	0.053573	0.000000	10.448000	0.000000	0.000000	0.000000	;
	329	1685	231.199219	77.066406	0.324396	0.000000	25.000000	0.000000	0.000000	0.000000	;
	2659	3294	594.635028	111.723309	0.134260	0.000000	15.000000	0.000000	0.000000	0.000000	;
	2334	1514	467.477241	155.825747	0.092334	0.000000	14.388000	0.000000	0.000000	0.000000	;
	3912	2147	255.913897	85.304632	0.293067	0.000000	25.000000	0.000000	0.000000	0.000000	;
	313	1710	238.859283	133.641262	0.202033	0.000000	27.000000	0.000000	0.000000	0.000000	;
	4087	3599	240.611458	80.203819	0.297511	0.000000	23.861500	0.000000	0.000000	0.000000	;
	4482	3416	312.723711	78.180928	0.191863	0.000000	15.000000	0.000000	0.000000	0.000000	;
	4382	3361	238.466449	79.488816	0.314510	0.000000	25.000000	0.000000	0.000000	0.000000	;
	1540	4156	210.274594	52.568649	0.332771	0.000000	17.493300	0.000000	0.000000	0.000000	;
	2249	2261	295.215705	98.405235	0.152431	0.000000	15.000000	0.000000	0.000000	0.000000	;
	3515	3500	318.493533	79.838369	0.187880	0.000000	15.000000	0.000000	0.000000	0.000000	;
	932	2808	323.456202	245.760650	0.065104	0.000000	16.000000	0.000000	0.000000	0.000000	;
	4448	2568	233.659223	77.886408	0.220703	0.000000	17.189750	0.000000	0.000000	0.000000	;
	1593	3563	262.919551	87.639850	0.189606	0.000000	16.617000	0.000000	0.000000	0.000000	;
	1677	1679	55.956450	27.978225	0.714842	0.000000	20.000000	0.000000	0.000000	0.000000	;
	4023	2310	318.995936	79.748984	0.276876	0.000000	22.080600	0.000000	0.000000	0.000000	;
	2138	4358	233.876438	77.958813	0.320682	0.000000	25.000000	0.000000	0.000000	0.000000	;
	1477	2662	239.930594	119.965297	0.125036	0.000000	15.000000	0.000000	0.000000	0.000000	;
	2338	2134	347.335277	86.833819	0.292400	0.000000	25.390250	0.000000	0.000000	0.000000	;
	768	3220	256.862394	973.059724	0.025692	0.000000	25.000000	0.000000	0.000000	0.000000	;
	1501	2718	314.176101	78.544025	0.318293	0.000000	25.000000	0.000000	0.000000	0.000000	;
	2429	2553	430.415159	143.471720	0.084449	0.000000	12.116000	0.000000	0.000000	0.000000	;
	234	3933	381.860050	127.286683	0.196407	0.000000	25.000000	0.000000	0.000000	0.000000	;
	3572	2929	24.931715	12.465857	2.005478	0.000000	25.000000	0.000000	0.000000	0.000000	;
	1545	1817	235.408480	117.704240	0.127438	0.000000	15.000000	0.000000	0.000000	0.000000	;
	2962	970	581.862539	193.954180	0.048156	0.000000	9.340000	0.000000	0.000000	0.000000	;
	1222	415	156.478822	78.239411	0.202328	0.000000	15.830000	0.000000	0.000000	0.000000	;
	4132	2797	241.506335	733.277273	0.034094	0.000000	25.000000	0.000000	0.000000	0.000000	;
	2391	2389	237.321136	79.107045	0.233258	0.000000	18.452333	0.000000	0.000000	0.000000	;
	1738	585	198.338468	49.584617	0.504189	0.000000	25.000000	0.000000	0.000000	0.000000	;
	2505	4039	160.469836	53.489945	0.191400	0.000000	10.238000	0.000000	0.000000	0.000000	;
	658	2701	342.061939	85.515485	0.193000	0.000000	16.504500	0.000000	0.000000	0.000000	;
	3933	3934	388.503343	129.501114	0.193049	0.000000	25.000000	0.000000	0.000000	0.000000	;
	1524	1538	678.626664	169.656666	0.103110	0.000000	17.493300	0.000000	0.000000	0.000000	;
	631	628	237.991423	79.330474	0.189082	0.000000	15.000000	0.000000	0.000000	0.000000	;
	4104	3048	146.836646	73.418323	0.476720	0.000000	35.000000	0.000000	0.000000	0.000000	;
	4225	2436	255.122590	142.847466	0.175012	0.000000	25.000000	0.000000	0.000000	0.000000	;
	1702	593	465.102075	155.034025	0.057645	0.000000	8.937000	0.000000	0.000000	0.000000	;
	405	409	597.365642	199.121881	0.075331	0.000000	15.000000	0.000000	0.000000	0.000000	;
	2808	1178	59.894319	50.486802	0.297107	0.000000	15.000000	0.000000	0.000000	0.000000	;
	89	3608	249.267996	187.440837	0.048015	0.000000	9.000000	0.000000	0.000000	0.000000	;
	2377	2376	240.626942	80.208981	0.230053	0.000000	18.452333	0.000000	0.000000	0.000000	;
	874	12	278.157167	85.745100	0.303224	0.000000	26.000000	0.000000	0.000000	0.000000	;
	2044	4437	239.974277	79.991426	0.239453	0.000000	19.154214	0.000000	0.000000	0.000000	;
	2341	473	464.605919	78.011188	0.217917	0.000000	17.000000	0.000000	0.000000	0.000000	;
	3544	2840	315.020293	78.755073	0.189156	0.000000	14.897000	0.000000	0.000000	0.000000	;
	3791	4231	153.328335	87.184667	0.286748	0.000000	25.000000	0.000000	0.000000	0.000000	;
	4093	3843	259.022519	86.340840	0.198870	0.000000	17.170600	0.000000	0.000000	0.000000	;
	2184	1904	172.737161	57.579054	0.434186	0.000000	25.000000	0.000000	0.000000	0.000000	;
	1763	1871	217.633375	72.544458	0.344616	0.000000	25.000000	0.000000	0.000000	0.000000	;
	1464	1469	224.152766	56.038192	0.312167	0.000000	17.493300	0.000000	0.000000	0.000000	;
	2132	2133	234.497647	78.165882	0.319833	0.000000	25.000000	0.000000	0.000000	0.000000	;
	2965	2962	231.417340	77.139113	0.324090	0.000000	25.000000	0.000000	0.000000	0.000000	;
	1083	3462	85.917247	21.479312	1.012742	0.000000	21.753000	0.000000	0.000000	0.000000	;
	553	1518	1094.730670	273.682668	0.091347	0.000000	25.000000	0.000000	0.000000	0.000000	;
	746	2945	234.129556	117.064778	0.201367	0.000000	23.573000	0.000000	0.000000	0.000000	;
	2215	2306	247.014039	61.753510	0.242901	0.000000	15.000000	0.000000	0.000000	0.000000	;
	1169	2781	184.812149	92.406075	0.100840	0.000000	9.318200	0.000000	0.000000	0.000000	;
	1378	1377	319.685253	79.921313	0.283441	0.000000	22.653000	0.000000	0.000000	0.000000	;
	3433	3434	335.427827	83.856957	0.145277	0.000000	12.182500	0.000000	0.000000	0.000000	;
	3805	3858	282.214090	141.107045	0.177170	0.000000	25.000000	0.000000	0.000000	0.000000	;
	1017	2791	320.552608	80.138152	0.311961	0.000000	25.000000	0.000000	0.000000	0.000000	;
	2179	3606	55.083334	18.361111	1.242735	0.000000	22.818000	0.000000	0.000000	0.000000	;
	2387	3832	758.917044	189.729261	0.131767	0.000000	25.000000	0.000000	0.000000	0.000000	;
	189	2050	135.977456	67.988728	0.157276	0.000000	10.693000	0.000000	0.000000	0.000000	;
	1871	4356	563.687236	140.921809	0.177403	0.000000	25.000000	0.000000	0.000000	0.000000	;
	1928	4123	68.615269	22.871756	0.344705	0.000000	7.884000	0.000000	0.000000	0.000000	;
	2654	2674	131.407477	43.802492	0.460156	0.000000	20.156000	0.000000	0.000000	0.000000	;
	666	4466	653.793075	163.448269	0.152954	0.000000	25.000000	0.000000	0.000000	0.000000	;
	3778	643	146.646944	73.323472	0.275739	0.000000	20.218143	0.000000	0.000000	0.000000	;
	2599	2601	237.858447	79.286149	0.204964	0.000000	16.250778	0.000000	0.000000	0.000000	;
	4430	2353	251.400568	83.800189	0.228570	0.000000	19.154214	0.000000	0.000000	0.000000	;
	2153	3220	261.031931	87.010644	0.167884	0.000000	14.607667	0.000000	0.000000	0.000000	;
	4486	3715	1582.314909	527.438303	0.056075	0.000000	29.576333	0.000000	0.000000	0.000000	;
	2627	4253	237.509461	79.169820	0.094614	0.000000	7.490556	0.000000	0.000000	0.000000	;
	2444	2442	265.550678	88.516893	0.282432	0.000000	25.000000	0.000000	0.000000	0.000000	;
	2531	2532	240.204989	80.074756	0.074930	0.000000	6.000000	0.000000	0.000000	0.000000	;
	863	161	864.000743	216.000186	0.058321	0.000000	12.597333	0.000000	0.000000	0.000000	;
	2407	3853	513.368114	78.759882	0.228543	0.000000	18.000000	0.000000	0.000000	0.000000	;
	1800	1566	341.957739	85.489435	0.175460	0.000000	15.000000	0.000000	0.000000	0.000000	;
	160	3875	305.637907	76.409477	0.327185	0.000000	25.000000	0.000000	0.000000	0.000000	;
	4186	4306	237.873792	79.291264	0.189176	0.000000	15.000000	0.000000	0.000000	0.000000	;
	3214	2035	357.476542	79.870069	0.363090	0.000000	29.000000	0.000000	0.000000	0.000000	;
	4016	4003	349.393140	87.348285	0.252788	0.000000	22.080600	0.000000	0.000000	0.000000	;
	2945	3662	294.760112	147.380056	0.134340	0.000000	19.799000	0.000000	0.000000	0.000000	;
	41	150	322.602579	80.650645	0.275723	0.000000	22.237235	0.000000	0.000000	0.000000	;
	3273	1795	253.799518	84.599839	0.295509	0.000000	25.000000	0.000000	0.000000	0.000000	;
	3105	3057	117.493821	58.746910	0.427580	0.000000	25.119000	0.000000	0.000000	0.000000	;
	2578	3135	229.829328	76.609776	0.195797	0.000000	15.000000	0.000000	0.000000	0.000000	;
	607	608	240.838819	80.279606	0.189007	0.000000	15.173400	0.000000	0.000000	0.000000	;
	2543	2545	241.459309	80.486436	0.212491	0.000000	17.102667	0.000000	0.000000	0.000000	;
	542	545	233.530917	77.843639	0.321157	0.000000	25.000000	0.000000	0.000000	0.000000	;
	3172	2278	87.267456	29.089152	0.859427	0.000000	25.000000	0.000000	0.000000	0.000000	;
	3496	3489	320.395142	80.098786	0.289979	0.000000	23.227000	0.000000	0.000000	0.000000	;
	3402	4428	238.881370	79.627123	0.095960	0.000000	7.641000	0.000000	0.000000	0.000000	;
	632	2319	238.263916	79.421305	0.109668	0.000000	8.710000	0.000000	0.000000	0.000000	;
	1128	3316	439.895471	146.631824	0.080135	0.000000	11.750333	0.000000	0.000000	0.000000	;
	2117	2033	182.803819	60.934606	0.410276	0.000000	25.000000	0.000000	0.000000	0.000000	;
	348	351	236.484943	78.828314	0.204089	0.000000	16.088000	0.000000	0.000000	0.000000	;
	2162	2166	169.371405	82.045084	0.304711	0.000000	25.000000	0.000000	0.000000	0.000000	;
	3888	705	236.442750	78.814250	0.317202	0.000000	25.000000	0.000000	0.000000	0.000000	;
	3302	1719	289.229796	144.614898	0.059387	0.000000	8.588200	0.000000	0.000000	0.000000	;
	875	4270	364.302198	91.075550	0.139697	0.000000	12.723000	0.000000	0.000000	0.000000	;
	3117	4169	309.626521	77.406630	0.322970	0.000000	25.000000	0.000000	0.000000	0.000000	;
	3133	3055	236.612775	78.870925	0.128488	0.000000	10.133938	0.000000	0.000000	0.000000	;
	3679	1407	244.866119	81.622040	0.183774	0.000000	15.000000	0.000000	0.000000	0.000000	;
	2300	2399	235.740143	78.580048	0.257151	0.000000	20.206909	0.000000	0.000000	0.000000	;
	2331	2741	320.614931	80.153733	0.242661	0.000000	19.450154	0.000000	0.000000	0.000000	;
	2115	1034	141.745349	47.248450	0.529118	0.000000	25.000000	0.000000	0.000000	0.000000	;
	3282	2682	170.631274	85.315637	0.185546	0.000000	15.830000	0.000000	0.000000	0.000000	;
	2662	4276	266.302384	133.151192	0.112654	0.000000	15.000000	0.000000	0.000000	0.000000	;
	3296	3307	70.042536	47.272788	0.528845	0.000000	25.000000	0.000000	0.000000	0.000000	;
	319	2328	241.900873	80.633624	0.186027	0.000000	15.000000	0.000000	0.000000	0.000000	;
	4204	2551	237.581152	79.193717	0.315682	0.000000	25.000000	0.000000	0.000000	0.000000	;
	1999	2149	313.194948	78.298737	0.319290	0.000000	25.000000	0.000000	0.000000	0.000000	;
	2005	2008	303.671841	75.917960	0.329303	0.000000	25.000000	0.000000	0.000000	0.000000	;
	2428	3998	461.000486	153.666829	0.045127	0.000000	6.934500	0.000000	0.000000	0.000000	;
	4336	378	94.412150	31.470717	0.334946	0.000000	10.541000	0.000000	0.000000	0.000000	;
	2285	3176	169.023679	84.511839	0.295817	0.000000	25.000000	0.000000	0.000000	0.000000	;
	446	3940	441.881233	110.470308	0.226305	0.000000	25.000000	0.000000	0.000000	0.000000	;
	1939	2724	19.309603	165.833576	0.186934	0.000000	31.000000	0.000000	0.000000	0.000000	;
	56	57	41.601504	63.089329	0.237758	0.000000	15.000000	0.000000	0.000000	0.000000	;
	610	608	258.180167	86.060056	0.176312	0.000000	15.173400	0.000000	0.000000	0.000000	;
	3376	3380	864.468009	216.117002	0.115678	0.000000	25.000000	0.000000	0.000000	0.000000	;
	2287	2288	318.557367	79.639342	0.215220	0.000000	17.140000	0.000000	0.000000	0.000000	;
	2008	4212	296.172558	98.724186	0.253231	0.000000	25.000000	0.000000	0.000000	0.000000	;
	422	3591	343.433515	85.858379	0.145356	0.000000	12.480000	0.000000	0.000000	0.000000	;
	1521	2367	1094.730670	275.157014	0.047246	0.000000	13.000000	0.000000	0.000000	0.000000	;
	272	1460	839.235239	269.068980	0.074330	0.000000	20.000000	0.000000	0.000000	0.000000	;
	3982	3988	341.757851	85.439463	0.227648	0.000000	19.450154	0.000000	0.000000	0.000000	;
	735	2517	4882.297863	786.347258	0.058498	0.000000	46.000000	0.000000	0.000000	0.000000	;
	2792	1957	42.216283	21.108141	0.710626	0.000000	15.000000	0.000000	0.000000	0.000000	;
	3651	3653	248.462043	82.820681	0.251010	0.000000	20.788833	0.000000	0.000000	0.000000	;
	2308	1563	16.513308	8.256654	1.816717	0.000000	15.000000	0.000000	0.000000	0.000000	;
	1698	1408	253.424157	84.474719	0.295947	0.000000	25.000000	0.000000	0.000000	0.000000	;
	3520	2923	27.457191	13.728596	0.875781	0.000000	12.023250	0.000000	0.000000	0.000000	;
	1189	2843	358.296332	89.574083	0.154212	0.000000	13.813375	0.000000	0.000000	0.000000	;
	3905	1364	323.730213	80.932553	0.279900	0.000000	22.653000	0.000000	0.000000	0.000000	;
	625	626	256.450434	85.483478	0.175473	0.000000	15.000000	0.000000	0.000000	0.000000	;
	3516	3530	318.493533	80.552444	0.198628	0.000000	16.000000	0.000000	0.000000	0.000000	;
	871	493	142.800955	47.600318	0.533988	0.000000	25.418000	0.000000	0.000000	0.000000	;
	1163	2305	337.628198	156.454546	0.159791	0.000000	25.000000	0.000000	0.000000	0.000000	;
	994	3404	609.245772	203.081924	0.060827	0.000000	12.352857	0.000000	0.000000	0.000000	;
	2972	960	234.559911	78.186637	0.319748	0.000000	25.000000	0.000000	0.000000	0.000000	;
	2617	23	234.948853	78.316284	0.231184	0.000000	18.105500	0.000000	0.000000	0.000000	;
	3481	638	257.641417	85.880472	0.174661	0.000000	15.000000	0.000000	0.000000	0.000000	;
	1804	1958	325.480410	162.740205	0.092171	0.000000	15.000000	0.000000	0.000000	0.000000	;
	634	4234	318.185501	79.546375	0.117817	0.000000	9.371929	0.000000	0.000000	0.000000	;
	355	3381	419.543295	104.885824	0.143013	0.000000	15.000000	0.000000	0.000000	0.000000	;
	4470	3672	166.703624	83.351812	0.179960	0.000000	15.000000	0.000000	0.000000	0.000000	;
	2194	98	235.641370	78.547123	0.318280	0.000000	25.000000	0.000000	0.000000	0.000000	;
	3437	3438	318.211726	79.552932	0.227279	0.000000	18.080714	0.000000	0.000000	0.000000	;
	1808	27	375.244266	170.838257	0.228286	0.000000	39.000000	0.000000	0.000000	0.000000	;
	424	4454	255.211290	85.070430	0.134724	0.000000	11.461000	0.000000	0.000000	0.000000	;
	52	1583	648.074761	216.024920	0.115727	0.000000	25.000000	0.000000	0.000000	0.000000	;
	676	673	70.175243	17.543811	1.425004	0.000000	25.000000	0.000000	0.000000	0.000000	;
	626	628	238.284001	79.428000	0.188850	0.000000	15.000000	0.000000	0.000000	0.000000	;
	2039	1266	306.891938	76.722984	0.253511	0.000000	19.450154	0.000000	0.000000	0.000000	;
	1051	599	308.328377	77.082094	0.324330	0.000000	25.000000	0.000000	0.000000	0.000000	;
	2509	4282	240.864470	80.288157	0.213862	0.000000	17.170600	0.000000	0.000000	0.000000	;
	3456	4273	209.307054	104.653527	0.334437	0.000000	35.000000	0.000000	0.000000	0.000000	;
	1986	3129	302.528581	151.264291	0.231383	0.000000	35.000000	0.000000	0.000000	0.000000	;
	2145	3466	292.301000	73.075250	0.342113	0.000000	25.000000	0.000000	0.000000	0.000000	;
	3569	2181	301.048008	75.262002	0.337398	0.000000	25.393250	0.000000	0.000000	0.000000	;
	2810	2427	122.955422	79.096134	0.316071	0.000000	25.000000	0.000000	0.000000	0.000000	;
	3851	4201	247.203026	481.081597	0.074831	0.000000	36.000000	0.000000	0.000000	0.000000	;
	322	1763	237.624820	79.208273	0.315624	0.000000	25.000000	0.000000	0.000000	0.000000	;
	2183	2186	238.647284	79.549095	0.226495	0.000000	18.017500	0.000000	0.000000	0.000000	;
	1032	1030	334.706809	111.568936	0.224077	0.000000	25.000000	0.000000	0.000000	0.000000	;
	1171	2069	331.623350	82.905837	0.301547	0.000000	25.000000	0.000000	0.000000	0.000000	;
	2893	2593	239.139791	79.713264	0.188174	0.000000	15.000000	0.000000	0.000000	0.000000	;
	2795	1738	182.339913	166.185928	0.150434	0.000000	25.000000	0.000000	0.000000	0.000000	;
	552	1195	235.772657	274.792382	0.054587	0.000000	15.000000	0.000000	0.000000	0.000000	;
	1840	968	67.112300	16.778075	1.490040	0.000000	25.000000	0.000000	0.000000	0.000000	;
	2991	2688	215.455603	222.790534	0.157098	0.000000	35.000000	0.000000	0.000000	0.000000	;
	1822	200	21.100454	10.550227	1.259499	0.000000	13.288000	0.000000	0.000000	0.000000	;
	1488	50	320.448247	94.138076	0.265567	0.000000	25.000000	0.000000	0.000000	0.000000	;
	2051	2053	188.967874	94.483937	0.094503	0.000000	8.929000	0.000000	0.000000	0.000000	;
	506	509	253.976144	84.658715	0.295303	0.000000	25.000000	0.000000	0.000000	0.000000	;
	1769	1596	264.323086	88.107695	0.138580	0.000000	12.210000	0.000000	0.000000	0.000000	;
	379	4497	257.665186	85.888395	0.221074	0.000000	18.987667	0.000000	0.000000	0.000000	;
	3335	336	257.097753	85.699251	0.251519	0.000000	21.555000	0.000000	0.000000	0.000000	;
	3253	4280	210.532393	70.177464	0.356240	0.000000	25.000000	0.000000	0.000000	0.000000	;
	1305	1857	236.101787	78.700596	0.254668	0.000000	20.042500	0.000000	0.000000	0.000000	;
	891	3264	246.888060	78.732035	0.317533	0.000000	25.000000	0.000000	0.000000	0.000000	;
	3041	2073	1009.333637	252.333409	0.099075	0.000000	25.000000	0.000000	0.000000	0.000000	;
	1260	2028	240.875420	80.291807	0.113274	0.000000	9.095000	0.000000	0.000000	0.000000	;
	120	1210	173.376741	75.189911	0.332491	0.000000	25.000000	0.000000	0.000000	0.000000	;
	2050	4068	32.339417	16.169709	0.530278	0.000000	8.574444	0.000000	0.000000	0.000000	;
	1945	2711	399.999270	136.814588	0.080401	0.000000	11.000000	0.000000	0.000000	0.000000	;
	2460	3300	112.150533	128.849042	0.217309	0.000000	28.000000	0.000000	0.000000	0.000000	;
	3655	3654	247.944778	170.030077	0.170558	0.000000	29.000000	0.000000	0.000000	0.000000	;
	3248	3366	181.148746	90.574373	0.386423	0.000000	35.000000	0.000000	0.000000	0.000000	;
	2925	738	121.423568	30.355892	0.823563	0.000000	25.000000	0.000000	0.000000	0.000000	;
	3390	2304	190.523821	47.630955	0.311373	0.000000	14.831000	0.000000	0.000000	0.000000	;
	3487	2038	821.550803	273.850268	0.047760	0.000000	13.079167	0.000000	0.000000	0.000000	;
	1446	1329	241.560444	80.520148	0.243053	0.000000	19.570692	0.000000	0.000000	0.000000	;
	2244	2260	987.586697	329.195566	0.045566	0.000000	15.000000	0.000000	0.000000	0.000000	;
	1422	4363	559.235853	139.808963	0.178815	0.000000	25.000000	0.000000	0.000000	0.000000	;
	3119	1243	82.267704	434.896630	0.075880	0.000000	33.000000	0.000000	0.000000	0.000000	;
	1748	3641	223.578324	111.789162	0.083631	0.000000	9.349000	0.000000	0.000000	0.000000	;
	3115	2984	290.927366	143.808991	0.173842	0.000000	25.000000	0.000000	0.000000	0.000000	;
	373	417	317.824998	79.456249	0.230718	0.000000	18.332000	0.000000	0.000000	0.000000	;
	345	2776	231.890995	77.296998	0.208132	0.000000	16.088000	0.000000	0.000000	0.000000	;
	4125	4447	238.366196	79.455399	0.233506	0.000000	18.553313	0.000000	0.000000	0.000000	;
	3737	2220	184.884700	92.442350	0.162263	0.000000	15.000000	0.000000	0.000000	0.000000	;
	2610	2608	237.263645	79.087882	0.205477	0.000000	16.250778	0.000000	0.000000	0.000000	;
	738	2925	121.423568	30.355892	0.823563	0.000000	25.000000	0.000000	0.000000	0.000000	;
	3008	622	265.087811	88.362604	0.208714	0.000000	18.442500	0.000000	0.000000	0.000000	;
	2195	3402	816.231522	272.077174	0.028845	0.000000	7.848000	0.000000	0.000000	0.000000	;
	446	1618	368.988395	122.996132	0.203258	0.000000	25.000000	0.000000	0.000000	0.000000	;
	2166	2167	185.215366	79.485444	0.314523	0.000000	25.000000	0.000000	0.000000	0.000000	;
	1050	52	339.605292	85.328753	0.292984	0.000000	25.000000	0.000000	0.000000	0.000000	;
	3379	528	160.448701	80.224351	0.436277	0.000000	35.000000	0.000000	0.000000	0.000000	;
	3974	2965	237.340213	79.113404	0.316002	0.000000	25.000000	0.000000	0.000000	0.000000	;
	3567	2151	109.171867	36.390622	0.950052	0.000000	34.573000	0.000000	0.000000	0.000000	;
	2036	3597	256.268643	85.422881	0.161134	0.000000	13.764500	0.000000	0.000000	0.000000	;
	2323	3167	237.968723	79.322908	0.189100	0.000000	15.000000	0.000000	0.000000	0.000000	;
	3040	3035	292.568326	73.142081	0.341801	0.000000	25.000000	0.000000	0.000000	0.000000	;
	1115	3867	110.545905	36.848635	0.300988	0.000000	11.091000	0.000000	0.000000	0.000000	;
	2113	3739	231.970335	77.323445	0.323317	0.000000	25.000000	0.000000	0.000000	0.000000	;
	2770	2768	239.481195	79.827065	0.142430	0.000000	11.369800	0.000000	0.000000	0.000000	;
	3092	393	36.450756	12.150252	1.705808	0.000000	20.726000	0.000000	0.000000	0.000000	;
	2277	296	52.698657	26.349329	0.569274	0.000000	15.000000	0.000000	0.000000	0.000000	;
	3701	3467	306.035728	153.017864	0.228731	0.000000	35.000000	0.000000	0.000000	0.000000	;
	1160	1445	316.627784	79.156946	0.315828	0.000000	25.000000	0.000000	0.000000	0.000000	;
	2719	2730	105.843087	26.460772	0.944795	0.000000	25.000000	0.000000	0.000000	0.000000	;
	718	4075	241.133904	80.377968	0.311031	0.000000	25.000000	0.000000	0.000000	0.000000	;
	3471	1627	463.295991	154.431997	0.161884	0.000000	25.000000	0.000000	0.000000	0.000000	;
	4246	4386	234.172094	78.057365	0.281724	0.000000	21.990643	0.000000	0.000000	0.000000	;
	2950	2663	165.284698	514.117482	0.077803	0.000000	40.000000	0.000000	0.000000	0.000000	;
	1957	1104	22.733815	11.366908	1.319620	0.000000	15.000000	0.000000	0.000000	0.000000	;
	2141	2142	225.482064	75.160688	0.332621	0.000000	25.000000	0.000000	0.000000	0.000000	;
	2665	1956	242.165084	80.721695	0.275192	0.000000	22.214000	0.000000	0.000000	0.000000	;
	206	558	239.069113	79.689704	0.313717	0.000000	25.000000	0.000000	0.000000	0.000000	;
	9	210	62.122904	237.848715	0.126131	0.000000	30.000000	0.000000	0.000000	0.000000	;
	321	320	260.767189	86.922396	0.172568	0.000000	15.000000	0.000000	0.000000	0.000000	;
	3570	4153	124.470250	31.117563	0.526857	0.000000	16.394500	0.000000	0.000000	0.000000	;
	3103	3113	118.503850	41.282138	0.266459	0.000000	11.000000	0.000000	0.000000	0.000000	;
	279	1303	244.596068	78.763579	0.177747	0.000000	14.000000	0.000000	0.000000	0.000000	;
	2943	2934	237.483370	79.161123	0.206326	0.000000	16.333024	0.000000	0.000000	0.000000	;
	59	1161	318.257987	79.564497	0.314210	0.000000	25.000000	0.000000	0.000000	0.000000	;
	4357	4354	334.413372	83.603343	0.299031	0.000000	25.000000	0.000000	0.000000	0.000000	;
	2838	3541	237.360490	80.839413	0.148442	0.000000	12.000000	0.000000	0.000000	0.000000	;
	1865	2939	129.555829	64.777914	0.385934	0.000000	25.000000	0.000000	0.000000	0.000000	;
	4348	3568	198.810297	49.702574	0.502992	0.000000	25.000000	0.000000	0.000000	0.000000	;
	4025	2917	309.762197	77.440549	0.258412	0.000000	20.011600	0.000000	0.000000	0.000000	;
	2248	2249	9.770512	146.753473	0.102212	0.000000	15.000000	0.000000	0.000000	0.000000	;
	3972	268	326.518491	1070.687642	0.041095	0.000000	44.000000	0.000000	0.000000	0.000000	;
	3036	142	333.446148	83.361537	0.299899	0.000000	25.000000	0.000000	0.000000	0.000000	;
	1672	540	499.160259	275.914953	0.090608	0.000000	25.000000	0.000000	0.000000	0.000000	;
	3587	3591	237.172347	153.457177	0.130330	0.000000	20.000000	0.000000	0.000000	0.000000	;
	1216	1416	593.554786	148.388696	0.168476	0.000000	25.000000	0.000000	0.000000	0.000000	;
	1571	1390	235.866649	78.622216	0.126014	0.000000	9.907500	0.000000	0.000000	0.000000	;
	1947	4315	382.606705	95.651676	0.188019	0.000000	17.984364	0.000000	0.000000	0.000000	;
	2584	1702	438.723720	146.241240	0.058584	0.000000	8.567400	0.000000	0.000000	0.000000	;
	62	2272	239.035127	79.678376	0.188257	0.000000	15.000000	0.000000	0.000000	0.000000	;
	535	713	237.955959	79.318653	0.315184	0.000000	25.000000	0.000000	0.000000	0.000000	;
	4309	932	315.282156	78.820539	0.235482	0.000000	18.560800	0.000000	0.000000	0.000000	;
	3717	1077	330.309388	82.577347	0.302746	0.000000	25.000000	0.000000	0.000000	0.000000	;
	234	3930	584.484558	194.828186	0.128318	0.000000	25.000000	0.000000	0.000000	0.000000	;
	3253	2521	458.763096	152.921032	0.082743	0.000000	12.653125	0.000000	0.000000	0.000000	;
	4428	2983	239.893478	79.964493	0.312639	0.000000	25.000000	0.000000	0.000000	0.000000	;
	2232	3995	643.424011	321.712005	0.071943	0.000000	23.145000	0.000000	0.000000	0.000000	;
	3332	3300	344.987784	114.995928	0.125544	0.000000	14.437000	0.000000	0.000000	0.000000	;
	3683	2824	228.593560	76.197853	0.295448	0.000000	22.512500	0.000000	0.000000	0.000000	;
	39	3120	296.163549	74.040887	0.337651	0.000000	25.000000	0.000000	0.000000	0.000000	;
	4480	418	438.596236	146.198745	0.050356	0.000000	7.362000	0.000000	0.000000	0.000000	;
	4167	4160	237.435717	79.145239	0.240539	0.000000	19.037500	0.000000	0.000000	0.000000	;
	3877	3237	536.823820	178.941273	0.069213	0.000000	12.385000	0.000000	0.000000	0.000000	;
	2634	3381	299.574107	74.893527	0.200284	0.000000	15.000000	0.000000	0.000000	0.000000	;
	850	851	252.476051	84.158684	0.207581	0.000000	17.469727	0.000000	0.000000	0.000000	;
	154	152	317.184606	79.296152	0.315274	0.000000	25.000000	0.000000	0.000000	0.000000	;
	2315	618	519.010030	83.187524	0.300526	0.000000	25.000000	0.000000	0.000000	0.000000	;
	3740	830	233.677275	2420.482891	0.007437	0.000000	18.000000	0.000000	0.000000	0.000000	;
	4441	3820	242.281286	80.760429	0.235111	0.000000	18.987667	0.000000	0.000000	0.000000	;
	2982	2189	819.601289	273.200430	0.043378	0.000000	11.851000	0.000000	0.000000	0.000000	;
	198	4232	436.932608	145.644203	0.081287	0.000000	11.839000	0.000000	0.000000	0.000000	;